data/public_benchmarks/arpae_go/extracted/Challenge_1_Original_Dataset_2_Scenarios/Original_Dataset_Real-Time_Edition_2/Network_05R-010/scenario_6/case.raw
 0,    100, 33, 0, 0, 60.0 / Header line 1
Header line 2
Header line 3
  1001,'',   115, 1, 1, 1, 1, 1.007549, -29.037156, 1.1, 0.9, 1.1, 0.9
  1002,'',   115, 1, 1, 1, 1, 1.0474793, -29.333663, 1.1, 0.9, 1.1, 0.9
  1003,'',   115, 1, 1, 1, 1, 1.018522, -19.685849, 1.1, 0.9, 1.1, 0.9
  1004,'',   230, 2, 1, 1, 1, 1.02199, -19.206887, 1.1, 0.9, 1.1, 0.9
  1005,'',   115, 1, 1, 1, 1, 1.0089356, -17.439831, 1.1, 0.9, 1.1, 0.9
  1006,'',  13.8, 2, 1, 1, 1, 1.0024952, -15.506471, 1.1, 0.9, 1.1, 0.9
  1007,'',   115, 1, 1, 1, 1, 1.0505865, -29.353225, 1.1, 0.9, 1.1, 0.9
  1008,'',   115, 1, 1, 1, 1, 1.0210836, -19.15755, 1.1, 0.9, 1.1, 0.9
  1009,'',  13.8, 2, 1, 1, 1, 1.0101933, -18.817135, 1.1, 0.9, 1.1, 0.9
  1010,'',   115, 1, 1, 1, 1, 1.0505725, -28.514479, 1.1, 0.9, 1.1, 0.9
  1011,'',    22, 2, 1, 1, 1, 1.0505725, -28.514479, 1.1, 0.9, 1.1, 0.9
  1012,'',   115, 1, 1, 1, 1, 1.0270203, -28.05725, 1.1, 0.9, 1.1, 0.9
  1013,'',   115, 1, 1, 1, 1, 1.0132692, -26.555217, 1.1, 0.9, 1.1, 0.9
  1014,'',   115, 1, 1, 1, 1, 1.0139641, -23.805205, 1.1, 0.9, 1.1, 0.9
  1015,'',   115, 1, 1, 1, 1, 1.0544641, -29.360222, 1.1, 0.9, 1.1, 0.9
  1016,'',   115, 1, 1, 1, 1, 1.015, -18.091971, 1.1, 0.9, 1.1, 0.9
  1017,'',   115, 1, 1, 1, 1, 1.0041864, -28.242525, 1.1, 0.9, 1.1, 0.9
  1018,'',   115, 1, 1, 1, 1, 1.0076908, -26.888449, 1.1, 0.9, 1.1, 0.9
  1019,'',   115, 1, 1, 1, 1, 1.015, -28.448121, 1.1, 0.9, 1.1, 0.9
  1020,'',   115, 1, 1, 1, 1, 1.015, -19.489689, 1.1, 0.9, 1.1, 0.9
  1021,'',  13.8, 2, 1, 1, 1, 1, -16.306613, 1.1, 0.9, 1.1, 0.9
  1022,'',   115, 1, 1, 1, 1, 1.019467, -19.263781, 1.1, 0.9, 1.1, 0.9
  1023,'',  13.8, 2, 1, 1, 1, 1.01, -18.85358, 1.1, 0.9, 1.1, 0.9
  1024,'',   115, 1, 1, 1, 1, 1.0060198, -25.812946, 1.1, 0.9, 1.1, 0.9
  1025,'',   115, 1, 1, 1, 1, 1.0174012, -18.027178, 1.1, 0.9, 1.1, 0.9
  1026,'',  13.8, 2, 1, 1, 1, 1.03, -11.661451, 1.1, 0.9, 1.1, 0.9
  1027,'',   115, 1, 1, 1, 1, 1, -29.327917, 1.1, 0.9, 1.1, 0.9
  1028,'',   115, 1, 1, 1, 1, 1.0228876, -18.481598, 1.1, 0.9, 1.1, 0.9
  1029,'',   115, 1, 1, 1, 1, 1.015, -29.106882, 1.1, 0.9, 1.1, 0.9
  1030,'',   115, 1, 1, 1, 1, 1.025729, -24.987444, 1.1, 0.9, 1.1, 0.9
  1031,'',   115, 1, 1, 1, 1, 1.033169, -28.467729, 1.1, 0.9, 1.1, 0.9
  1032,'',   115, 1, 1, 1, 1, 1.004463, -22.111055, 1.1, 0.9, 1.1, 0.9
  1033,'',   230, 2, 1, 1, 1, 1.0156225, -26.186864, 1.1, 0.9, 1.1, 0.9
  1034,'',   115, 1, 1, 1, 1, 1.0063456, -16.758397, 1.1, 0.9, 1.1, 0.9
  1035,'',  13.8, 2, 1, 1, 1, 1, -14.132647, 1.1, 0.9, 1.1, 0.9
  1036,'',   115, 1, 1, 1, 1, 0.99955847, -19.965342, 1.1, 0.9, 1.1, 0.9
  1037,'',   115, 1, 1, 1, 1, 1.0021774, -29.007689, 1.1, 0.9, 1.1, 0.9
  1038,'',   115, 1, 1, 1, 1, 1.0133654, -20.121204, 1.1, 0.9, 1.1, 0.9
  1039,'',    22, 2, 1, 1, 1, 1, -19.223988, 1.1, 0.9, 1.1, 0.9
  1040,'',   115, 1, 1, 1, 1, 1.0065291, -26.664179, 1.1, 0.9, 1.1, 0.9
  1041,'',   115, 1, 1, 1, 1, 1.0065181, -17.460873, 1.1, 0.9, 1.1, 0.9
  1042,'',  13.8, 2, 1, 1, 1, 1.0065181, -17.460873, 1.1, 0.9, 1.1, 0.9
  1043,'',  13.8, 2, 1, 1, 1, 1.0183068, -14.308888, 1.1, 0.9, 1.1, 0.9
  1044,'',   115, 1, 1, 1, 1, 1.0186571, -26.27638, 1.1, 0.9, 1.1, 0.9
  1045,'',   115, 1, 1, 1, 1, 0.99906864, -29.728017, 1.1, 0.9, 1.1, 0.9
  1046,'',   115, 1, 1, 1, 1, 1.0262918, -25.424841, 1.1, 0.9, 1.1, 0.9
  1047,'',   115, 1, 1, 1, 1, 1.0107393, -25.193225, 1.1, 0.9, 1.1, 0.9
  1048,'',    18, 2, 1, 1, 1, 1.0107393, -25.193225, 1.1, 0.9, 1.1, 0.9
  1049,'',    18, 2, 1, 1, 1, 1.0107393, -25.193225, 1.1, 0.9, 1.1, 0.9
  1050,'',    18, 2, 1, 1, 1, 1.0015616, -23.647182, 1.1, 0.9, 1.1, 0.9
  1051,'',    18, 2, 1, 1, 1, 1, -23.188076, 1.1, 0.9, 1.1, 0.9
  1052,'',    18, 2, 1, 1, 1, 1.004516, -23.909133, 1.1, 0.9, 1.1, 0.9
  1053,'',   230, 2, 1, 1, 1, 1.0198119, -26.06032, 1.1, 0.9, 1.1, 0.9
  1054,'',   115, 1, 1, 1, 1, 1.004996, -25.535097, 1.1, 0.9, 1.1, 0.9
  1055,'',   115, 1, 1, 1, 1, 1.012178, -20.633143, 1.1, 0.9, 1.1, 0.9
  1056,'',   115, 1, 1, 1, 1, 1.015, -25.755927, 1.1, 0.9, 1.1, 0.9
  1057,'',    18, 2, 1, 1, 1, 1.015, -25.755927, 1.1, 0.9, 1.1, 0.9
  1058,'',   115, 1, 1, 1, 1, 1.0273263, -19.766046, 1.1, 0.9, 1.1, 0.9
  1059,'',    22, 2, 1, 1, 1, 1.0273263, -19.766046, 1.1, 0.9, 1.1, 0.9
  1060,'',    22, 2, 1, 1, 1, 1.0273263, -19.766046, 1.1, 0.9, 1.1, 0.9
  1061,'',   115, 1, 1, 1, 1, 1.0153741, -24.064034, 1.1, 0.9, 1.1, 0.9
  1062,'',  13.8, 2, 1, 1, 1, 1.0153741, -24.064034, 1.1, 0.9, 1.1, 0.9
  1063,'',  13.8, 2, 1, 1, 1, 1.0153741, -24.064034, 1.1, 0.9, 1.1, 0.9
  1064,'',   115, 1, 1, 1, 1, 1.0003582, -29.833028, 1.1, 0.9, 1.1, 0.9
  1065,'',   115, 1, 1, 1, 1, 1.0067723, -17.716459, 1.1, 0.9, 1.1, 0.9
  1066,'',  13.8, 2, 1, 1, 1, 1, -11.531348, 1.1, 0.9, 1.1, 0.9
  1067,'',   115, 1, 1, 1, 1, 1.0035439, -17.671989, 1.1, 0.9, 1.1, 0.9
  1068,'',   115, 1, 1, 1, 1, 0.99350793, -19.515099, 1.1, 0.9, 1.1, 0.9
  1069,'',   115, 1, 1, 1, 1, 1.0275188, -18.381616, 1.1, 0.9, 1.1, 0.9
  1070,'',  13.8, 2, 1, 1, 1, 1.04, -13.732943, 1.1, 0.9, 1.1, 0.9
  1071,'',   115, 1, 1, 1, 1, 1.0141692, -28.31261, 1.1, 0.9, 1.1, 0.9
  1072,'',    18, 2, 1, 1, 1, 1.01, -25.497723, 1.1, 0.9, 1.1, 0.9
  1073,'',    18, 2, 1, 1, 1, 1.01, -23.644769, 1.1, 0.9, 1.1, 0.9
  1074,'',    18, 2, 1, 1, 1, 1.01, -24.229152, 1.1, 0.9, 1.1, 0.9
  1075,'',    18, 2, 1, 1, 1, 1.01, -25.045712, 1.1, 0.9, 1.1, 0.9
  1076,'',    18, 2, 1, 1, 1, 1.0141692, -28.31261, 1.1, 0.9, 1.1, 0.9
  1077,'',    18, 2, 1, 1, 1, 1.0141692, -28.31261, 1.1, 0.9, 1.1, 0.9
  1078,'',    18, 2, 1, 1, 1, 1.01, -25.205907, 1.1, 0.9, 1.1, 0.9
  1079,'',   500, 2, 1, 1, 1, 1.0600784, -31.62438, 1.1, 0.9, 1.1, 0.9
  1080,'',    18, 2, 1, 1, 1, 1.01, -25.0102, 1.1, 0.9, 1.1, 0.9
  1081,'',   230, 2, 1, 1, 1, 1.0216591, -26.360861, 1.1, 0.9, 1.1, 0.9
  1082,'',   115, 2, 1, 1, 1, 1.0186956, -17.480632, 1.1, 0.9, 1.1, 0.9
  1083,'',   115, 1, 1, 1, 1, 1.015, -21.88953, 1.1, 0.9, 1.1, 0.9
  1084,'',   115, 2, 1, 1, 1, 1.0211061, -20.963573, 1.1, 0.9, 1.1, 0.9
  1085,'',   115, 1, 1, 1, 1, 1.0130313, -25.493323, 1.1, 0.9, 1.1, 0.9
  1086,'',   115, 1, 1, 1, 1, 1.015, -27.389974, 1.1, 0.9, 1.1, 0.9
  1087,'',   115, 1, 1, 1, 1, 1.0293191, -22.42428, 1.1, 0.9, 1.1, 0.9
  1088,'',   115, 2, 1, 1, 1, 1, -17.165367, 1.1, 0.9, 1.1, 0.9
  1089,'',   115, 1, 1, 1, 1, 0.99488755, -23.555446, 1.1, 0.9, 1.1, 0.9
  1090,'',   115, 2, 1, 1, 1, 1.02, -23.319712, 1.1, 0.9, 1.1, 0.9
  1091,'',   161, 1, 1, 1, 1, 1.0320784, -23.923854, 1.1, 0.9, 1.1, 0.9
  2001,'',   161, 1, 1, 1, 1, 1.0309412, -44.96546, 1.1, 0.9, 1.1, 0.9
  2002,'',   500, 1, 1, 1, 1, 1.0317882, -44.941669, 1.1, 0.9, 1.1, 0.9
  2003,'',   161, 1, 1, 1, 1, 1.027922, -45.935734, 1.1, 0.9, 1.1, 0.9
  2004,'',  13.8, 2, 1, 1, 1, 1.0317882, -44.941669, 1.1, 0.9, 1.1, 0.9
  2005,'',  13.8, 2, 1, 1, 1, 1.0317882, -44.941669, 1.1, 0.9, 1.1, 0.9
  2006,'',  13.8, 2, 1, 1, 1, 1.0317882, -44.941669, 1.1, 0.9, 1.1, 0.9
  2007,'',   161, 1, 1, 1, 1, 1.0293777, -44.78117, 1.1, 0.9, 1.1, 0.9
  2008,'',   161, 1, 1, 1, 1, 1.0412198, -23.528926, 1.1, 0.9, 1.1, 0.9
  2009,'',   161, 1, 1, 1, 1, 1.0365215, -34.422591, 1.1, 0.9, 1.1, 0.9
  2010,'',   161, 1, 1, 1, 1, 1.0317546, -28.147058, 1.1, 0.9, 1.1, 0.9
  2011,'',   500, 1, 1, 1, 1, 1.0513024, -23.657947, 1.1, 0.9, 1.1, 0.9
  2012,'',   161, 1, 1, 1, 1, 1.0413436, -21.371693, 1.1, 0.9, 1.1, 0.9
  2013,'',    18, 2, 1, 1, 1, 1.04337, -22.38781, 1.1, 0.9, 1.1, 0.9
  2014,'',   161, 1, 1, 1, 1, 1.040043, -24.195572, 1.1, 0.9, 1.1, 0.9
  2015,'',   161, 1, 1, 1, 1, 1.0227197, -40.831434, 1.1, 0.9, 1.1, 0.9
  2016,'',   161, 1, 1, 1, 1, 1.010567, -48.365835, 1.1, 0.9, 1.1, 0.9
  2017,'',   500, 1, 1, 1, 1, 1.033064, -24.153069, 1.1, 0.9, 1.1, 0.9
  2018,'',   161, 1, 1, 1, 1, 1.0339382, -23.196569, 1.1, 0.9, 1.1, 0.9
  2019,'',    20, 2, 1, 1, 1, 1.033064, -24.153069, 1.1, 0.9, 1.1, 0.9
  2020,'',   161, 1, 1, 1, 1, 1.0369, -34.735841, 1.1, 0.9, 1.1, 0.9
  2021,'',   500, 1, 1, 1, 1, 1.0324562, -43.536272, 1.1, 0.9, 1.1, 0.9
  2022,'',   161, 1, 1, 1, 1, 1.033097, -44.351378, 1.1, 0.9, 1.1, 0.9
  2023,'',  13.8, 2, 1, 1, 1, 1.0294944, -43.068615, 1.1, 0.9, 1.1, 0.9
  2024,'',  13.8, 2, 1, 1, 1, 1.0282005, -42.869746, 1.1, 0.9, 1.1, 0.9
  2025,'',   161, 1, 1, 1, 1, 1.0365664, -34.455524, 1.1, 0.9, 1.1, 0.9
  2026,'',   161, 1, 1, 1, 1, 1.0427218, -22.276844, 1.1, 0.9, 1.1, 0.9
  2027,'',   161, 1, 1, 1, 1, 1.0325996, -45.146849, 1.1, 0.9, 1.1, 0.9
  2028,'',   161, 1, 1, 1, 1, 1.0339981, -35.547116, 1.1, 0.9, 1.1, 0.9
  2029,'',   161, 1, 1, 1, 1, 1.0404699, -24.194652, 1.1, 0.9, 1.1, 0.9
  2030,'',   161, 1, 1, 1, 1, 1.0219962, -46.33744, 1.1, 0.9, 1.1, 0.9
  2031,'',   161, 1, 1, 1, 1, 1.039545, -23.575649, 1.1, 0.9, 1.1, 0.9
  2032,'',   161, 1, 1, 1, 1, 1.0302919, -44.548696, 1.1, 0.9, 1.1, 0.9
  2033,'',   161, 1, 1, 1, 1, 1.0223892, -46.790019, 1.1, 0.9, 1.1, 0.9
  2034,'',   161, 1, 1, 1, 1, 1.0122805, -48.178677, 1.1, 0.9, 1.1, 0.9
  2035,'',   161, 1, 1, 1, 1, 1.0379625, -24.420076, 1.1, 0.9, 1.1, 0.9
  2036,'',   161, 1, 1, 1, 1, 1.0369094, -34.510249, 1.1, 0.9, 1.1, 0.9
  2037,'',   161, 1, 1, 1, 1, 1.0239599, -40.455111, 1.1, 0.9, 1.1, 0.9
  2038,'',   161, 1, 1, 1, 1, 1.0270032, -46.141921, 1.1, 0.9, 1.1, 0.9
  2039,'',   161, 1, 1, 1, 1, 1.0238135, -40.974807, 1.1, 0.9, 1.1, 0.9
  2040,'',   161, 1, 1, 1, 1, 1.0342702, -44.690488, 1.1, 0.9, 1.1, 0.9
  2041,'',   161, 1, 1, 1, 1, 1.0424884, -19.378518, 1.1, 0.9, 1.1, 0.9
  2042,'',    18, 2, 1, 1, 1, 1.0340532, -16.874968, 1.1, 0.9, 1.1, 0.9
  2043,'',   161, 1, 1, 1, 1, 1.0115616, -48.269861, 1.1, 0.9, 1.1, 0.9
  2044,'',   161, 1, 1, 1, 1, 1.0147426, -47.323114, 1.1, 0.9, 1.1, 0.9
  2045,'',   161, 1, 1, 1, 1, 1.0360901, -34.926297, 1.1, 0.9, 1.1, 0.9
  2046,'',   161, 1, 1, 1, 1, 1.0131234, -48.051696, 1.1, 0.9, 1.1, 0.9
  2047,'',   161, 1, 1, 1, 1, 1.0253492, -46.323425, 1.1, 0.9, 1.1, 0.9
  2048,'',   161, 1, 1, 1, 1, 1.0378116, -24.708932, 1.1, 0.9, 1.1, 0.9
  2049,'',   161, 1, 1, 1, 1, 1.0304049, -31.850994, 1.1, 0.9, 1.1, 0.9
  2050,'',   161, 1, 1, 1, 1, 1.0299299, -46.179721, 1.1, 0.9, 1.1, 0.9
  2051,'',   161, 1, 1, 1, 1, 1.0286765, -38.097773, 1.1, 0.9, 1.1, 0.9
  2052,'',   161, 1, 1, 1, 1, 1.0403039, -22.766533, 1.1, 0.9, 1.1, 0.9
  2053,'',   161, 1, 1, 1, 1, 1.0254916, -41.597594, 1.1, 0.9, 1.1, 0.9
  2054,'',   500, 1, 1, 1, 1, 1.0402544, -34.079055, 1.1, 0.9, 1.1, 0.9
  2055,'',   161, 1, 1, 1, 1, 1.0385194, -34.387612, 1.1, 0.9, 1.1, 0.9
  2056,'',    18, 2, 1, 1, 1, 1.0402544, -34.079055, 1.1, 0.9, 1.1, 0.9
  2057,'',    18, 2, 1, 1, 1, 1.0386012, -32.544157, 1.1, 0.9, 1.1, 0.9
  2058,'',   161, 1, 1, 1, 1, 1.0428489, -19.103018, 1.1, 0.9, 1.1, 0.9
  2059,'',  13.8, 2, 1, 1, 1, 1.0324929, -17.921602, 1.1, 0.9, 1.1, 0.9
  2060,'',   161, 1, 1, 1, 1, 1.0287921, -45.620101, 1.1, 0.9, 1.1, 0.9
  2061,'',   161, 1, 1, 1, 1, 1.026928, -29.743711, 1.1, 0.9, 1.1, 0.9
  2062,'',    18, 2, 1, 1, 1, 1.02, -28.766887, 1.1, 0.9, 1.1, 0.9
  2063,'',   161, 1, 1, 1, 1, 1.0146579, -47.800349, 1.1, 0.9, 1.1, 0.9
  2064,'',   161, 1, 1, 1, 1, 1.0309109, -44.99118, 1.1, 0.9, 1.1, 0.9
  2065,'',   161, 1, 1, 1, 1, 1.007982, -47.99841, 1.1, 0.9, 1.1, 0.9
  2066,'',   161, 1, 1, 1, 1, 1.0368903, -22.627318, 1.1, 0.9, 1.1, 0.9
  2067,'',   161, 1, 1, 1, 1, 1.0351316, -34.412543, 1.1, 0.9, 1.1, 0.9
  2068,'',   161, 1, 1, 1, 1, 1.0348884, -33.457627, 1.1, 0.9, 1.1, 0.9
  2069,'',   161, 1, 1, 1, 1, 1.015, -47.83695, 1.1, 0.9, 1.1, 0.9
  2070,'',   161, 1, 1, 1, 1, 1.0355411, -33.154068, 1.1, 0.9, 1.1, 0.9
  2071,'',    18, 2, 1, 1, 1, 1.0253145, -30.519112, 1.1, 0.9, 1.1, 0.9
  2072,'',   161, 1, 1, 1, 1, 1.019858, -47.113975, 1.1, 0.9, 1.1, 0.9
  2073,'',   161, 1, 1, 1, 1, 1.0353778, -21.107539, 1.1, 0.9, 1.1, 0.9
  2074,'',   115, 1, 1, 1, 1, 1.0255006, -19.929862, 1.1, 0.9, 1.1, 0.9
  2075,'',   115, 1, 1, 1, 1, 1.0255006, -19.929862, 1.1, 0.9, 1.1, 0.9
  2076,'',    24, 2, 1, 1, 1, 1.04, -20.62316, 1.1, 0.9, 1.1, 0.9
  2077,'',   161, 1, 1, 1, 1, 1.0242653, -40.087513, 1.1, 0.9, 1.1, 0.9
  2078,'',  13.8, 2, 1, 1, 1, 1.02, -39.67729, 1.1, 0.9, 1.1, 0.9
  2079,'',   161, 1, 1, 1, 1, 1.0360596, -26.82083, 1.1, 0.9, 1.1, 0.9
  2080,'',   161, 1, 1, 1, 1, 1.0269462, -39.309763, 1.1, 0.9, 1.1, 0.9
  2081,'',   161, 1, 1, 1, 1, 1.0250226, -46.486764, 1.1, 0.9, 1.1, 0.9
  2082,'',   161, 1, 1, 1, 1, 1.0361279, -34.541833, 1.1, 0.9, 1.1, 0.9
  2083,'',    20, 2, 1, 1, 1, 1.0384262, -33.441569, 1.1, 0.9, 1.1, 0.9
  2084,'',    20, 2, 1, 1, 1, 1.0361279, -34.541833, 1.1, 0.9, 1.1, 0.9
  2085,'',    20, 2, 1, 1, 1, 1.0361279, -34.541833, 1.1, 0.9, 1.1, 0.9
  2086,'',   161, 1, 1, 1, 1, 1.0253249, -40.348121, 1.1, 0.9, 1.1, 0.9
  2087,'',   161, 1, 1, 1, 1, 1.038315, -22.392862, 1.1, 0.9, 1.1, 0.9
  2088,'',   161, 1, 1, 1, 1, 1.0348403, -33.315257, 1.1, 0.9, 1.1, 0.9
  2089,'',    24, 2, 1, 1, 1, 1.025388, -32.607874, 1.1, 0.9, 1.1, 0.9
  2090,'',   161, 1, 1, 1, 1, 1.0342268, -45.384971, 1.1, 0.9, 1.1, 0.9
  2091,'',   161, 1, 1, 1, 1, 1.0361429, -26.53199, 1.1, 0.9, 1.1, 0.9
  2092,'',   161, 1, 1, 1, 1, 1.019674, -47.099258, 1.1, 0.9, 1.1, 0.9
  2093,'',   161, 1, 1, 1, 1, 1.038298, -22.232292, 1.1, 0.9, 1.1, 0.9
  2094,'',  13.8, 2, 1, 1, 1, 1.038298, -22.232292, 1.1, 0.9, 1.1, 0.9
  2095,'',  13.8, 2, 1, 1, 1, 1.038298, -22.232292, 1.1, 0.9, 1.1, 0.9
  2096,'',   500, 1, 1, 1, 1, 1, -22.125736, 1.1, 0.9, 1.1, 0.9
  2097,'',   230, 1, 1, 1, 1, 1.0040283, -21.842472, 1.1, 0.9, 1.1, 0.9
  2098,'',   161, 1, 1, 1, 1, 1.0287441, -23.562809, 1.1, 0.9, 1.1, 0.9
  2099,'',    18, 2, 1, 1, 1, 1.0007401, -22.076331, 1.1, 0.9, 1.1, 0.9
  2100,'',    18, 2, 1, 1, 1, 1.0133525, -21.224386, 1.1, 0.9, 1.1, 0.9
  2101,'',   500, 1, 1, 1, 1, 1.0306953, -45.193824, 1.1, 0.9, 1.1, 0.9
  2102,'',   161, 1, 1, 1, 1, 1.0275483, -45.90571, 1.1, 0.9, 1.1, 0.9
  2103,'',    20, 2, 1, 1, 1, 1.0306953, -45.193824, 1.1, 0.9, 1.1, 0.9
  2104,'',    20, 2, 1, 1, 1, 1.0306953, -45.193824, 1.1, 0.9, 1.1, 0.9
  2105,'',    20, 2, 1, 1, 1, 1.0306953, -45.193824, 1.1, 0.9, 1.1, 0.9
  2106,'',   161, 1, 1, 1, 1, 1.0199585, -46.963119, 1.1, 0.9, 1.1, 0.9
  2107,'',   161, 1, 1, 1, 1, 1.0249814, -46.234724, 1.1, 0.9, 1.1, 0.9
  2108,'',   161, 1, 1, 1, 1, 1.0444139, -33.898672, 1.1, 0.9, 1.1, 0.9
  2109,'',   161, 1, 1, 1, 1, 1.0342401, -35.034502, 1.1, 0.9, 1.1, 0.9
...
0 / END OF BUS DATA, BEGIN LOAD DATA
1001, '1', 1, 1, 1, 14.525, 4.115, 0, 0, 0, 0, 1, 1, 0
1002, '1', 1, 1, 1, 10.774, 3.053, 0, 0, 0, 0, 1, 1, 0
1007, '1', 1, 1, 1, 4.898, 1.388, 0, 0, 0, 0, 1, 1, 0
1012, '1', 1, 1, 1, 2.086, 0.591, 0, 0, 0, 0, 1, 1, 0
1013, '1', 1, 1, 1, 20.428, 5.788, 0, 0, 0, 0, 1, 1, 0
1014, '1', 1, 1, 1, 1.552, 0.44, 0, 0, 0, 0, 1, 1, 0
1015, '1', 1, 1, 1, 5.249, 1.487, 0, 0, 0, 0, 1, 1, 0
1016, '1', 1, 1, 1, 2.019, 0.572, 0, 0, 0, 0, 1, 1, 0
1017, '1', 1, 1, 1, 12.823, 3.633, 0, 0, 0, 0, 1, 1, 0
1018, '1', 1, 1, 1, 0.048, 0.014, 0, 0, 0, 0, 1, 1, 0
1019, '1', 1, 1, 1, 43.179, 12.234, 0, 0, 0, 0, 1, 1, 0
1024, '1', 1, 1, 1, 44.062, 12.484, 0, 0, 0, 0, 1, 1, 0
1027, '1', 1, 1, 1, 70.743, 20.044, 0, 0, 0, 0, 1, 1, 0
1028, '1', 1, 1, 1, 6.999, 1.983, 0, 0, 0, 0, 1, 1, 0
1029, '1', 1, 1, 1, 58.143, 16.474, 0, 0, 0, 0, 1, 1, 0
1030, '1', 1, 1, 1, 17.213, 4.877, 0, 0, 0, 0, 1, 1, 0
1031, '1', 1, 1, 1, 6.463, 1.831, 0, 0, 0, 0, 1, 1, 0
1036, '1', 1, 1, 1, 9.503, 2.692, 0, 0, 0, 0, 1, 1, 0
1037, '1', 1, 1, 1, 71.46, 20.247, 0, 0, 0, 0, 1, 1, 0
1040, '1', 1, 1, 1, 31.005, 8.785, 0, 0, 0, 0, 1, 1, 0
1044, '1', 1, 1, 1, 10.263, 2.908, 0, 0, 0, 0, 1, 1, 0
1045, '1', 1, 1, 1, 68.892, 19.519, 0, 0, 0, 0, 1, 1, 0
1046, '1', 1, 1, 1, 7.748, 2.195, 0, 0, 0, 0, 1, 1, 0
1054, '1', 1, 1, 1, 10.476, 2.969, 0, 0, 0, 0, 1, 1, 0
1055, '1', 1, 1, 1, 2.78, 0.788, 0, 0, 0, 0, 1, 1, 0
1058, '1', 1, 1, 1, 9.405, 2.664, 0, 0, 0, 0, 1, 1, 0
1064, '1', 1, 1, 1, 86.504, 24.509, 0, 0, 0, 0, 1, 1, 0
1067, '1', 1, 1, 1, 70.98, 20.111, 0, 0, 0, 0, 1, 1, 0
1068, '1', 1, 1, 1, 41.521, 11.765, 0, 0, 0, 0, 1, 1, 0
1071, '1', 1, 1, 1, 63.93, 18.114, 0, 0, 0, 0, 1, 1, 0
1083, '1', 1, 1, 1, 27.92, 7.911, 0, 0, 0, 0, 1, 1, 0
1085, '1', 1, 1, 1, 14.886, 4.218, 0, 0, 0, 0, 1, 1, 0
1086, '1', 1, 1, 1, 27.729, 7.857, 0, 0, 0, 0, 1, 1, 0
1087, '1', 1, 1, 1, 0.635, 0.18, 0, 0, 0, 0, 1, 1, 0
1089, '1', 1, 1, 1, 28.382, 8.042, 0, 0, 0, 0, 1, 1, 0
1091, '1', 1, 1, 1, 8.123, 2.301, 0, 0, 0, 0, 1, 1, 0
2001, '1', 1, 1, 1, 23.698, 6.715, 0, 0, 0, 0, 1, 1, 0
2007, '1', 1, 1, 1, 4.675, 1.325, 0, 0, 0, 0, 1, 1, 0
2008, '1', 1, 1, 1, 3.95, 1.119, 0, 0, 0, 0, 1, 1, 0
2009, '1', 1, 1, 1, 19.179, 5.434, 0, 0, 0, 0, 1, 1, 0
2010, '1', 1, 1, 1, 27.839, 7.889, 0, 0, 0, 0, 1, 1, 0
2014, '1', 1, 1, 1, 12.462, 3.531, 0, 0, 0, 0, 1, 1, 0
2015, '1', 1, 1, 1, 2.296, 0.651, 0, 0, 0, 0, 1, 1, 0
2016, '1', 1, 1, 1, 33.946, 9.618, 0, 0, 0, 0, 1, 1, 0
2020, '1', 1, 1, 1, 23.51, 6.661, 0, 0, 0, 0, 1, 1, 0
2022, '1', 1, 1, 1, 5.668, 1.606, 0, 0, 0, 0, 1, 1, 0
2025, '1', 1, 1, 1, 19.416, 5.501, 0, 0, 0, 0, 1, 1, 0
2026, '1', 1, 1, 1, 9.101, 2.579, 0, 0, 0, 0, 1, 1, 0
2027, '1', 1, 1, 1, 1.742, 0.494, 0, 0, 0, 0, 1, 1, 0
2028, '1', 1, 1, 1, 6.978, 1.977, 0, 0, 0, 0, 1, 1, 0
2029, '1', 1, 1, 1, 1.569, 0.444, 0, 0, 0, 0, 1, 1, 0
2030, '1', 1, 1, 1, 23.104, 6.546, 0, 0, 0, 0, 1, 1, 0
2031, '1', 1, 1, 1, 2.825, 0.801, 0, 0, 0, 0, 1, 1, 0
2032, '1', 1, 1, 1, 1.644, 0.466, 0, 0, 0, 0, 1, 1, 0
2033, '1', 1, 1, 1, 6.651, 1.885, 0, 0, 0, 0, 1, 1, 0
2034, '1', 1, 1, 1, 2.617, 0.741, 0, 0, 0, 0, 1, 1, 0
2035, '1', 1, 1, 1, 2.295, 0.65, 0, 0, 0, 0, 1, 1, 0
2036, '1', 1, 1, 1, 20.38, 5.774, 0, 0, 0, 0, 1, 1, 0
2037, '1', 1, 1, 1, 1.716, 0.486, 0, 0, 0, 0, 1, 1, 0
2038, '1', 1, 1, 1, 1.276, 0.362, 0, 0, 0, 0, 1, 1, 0
2039, '1', 1, 1, 1, 2.724, 0.772, 0, 0, 0, 0, 1, 1, 0
2040, '1', 1, 1, 1, 7.794, 2.208, 0, 0, 0, 0, 1, 1, 0
2043, '1', 1, 1, 1, 2.076, 0.588, 0, 0, 0, 0, 1, 1, 0
2044, '1', 1, 1, 1, 13.43, 3.805, 0, 0, 0, 0, 1, 1, 0
2045, '1', 1, 1, 1, 11.078, 3.139, 0, 0, 0, 0, 1, 1, 0
2046, '1', 1, 1, 1, 10.847, 3.073, 0, 0, 0, 0, 1, 1, 0
2047, '1', 1, 1, 1, 7.329, 2.076, 0, 0, 0, 0, 1, 1, 0
2048, '1', 1, 1, 1, 3.145, 0.891, 0, 0, 0, 0, 1, 1, 0
2049, '1', 1, 1, 1, 5.671, 1.606, 0, 0, 0, 0, 1, 1, 0
2050, '1', 1, 1, 1, 1.792, 0.508, 0, 0, 0, 0, 1, 1, 0
2051, '1', 1, 1, 1, 8.748, 2.479, 0, 0, 0, 0, 1, 1, 0
2052, '1', 1, 1, 1, 12.172, 3.448, 0, 0, 0, 0, 1, 1, 0
2053, '1', 1, 1, 1, 14.277, 4.045, 0, 0, 0, 0, 1, 1, 0
2055, '1', 1, 1, 1, 24.317, 6.89, 0, 0, 0, 0, 1, 1, 0
2060, '1', 1, 1, 1, 1.86, 0.527, 0, 0, 0, 0, 1, 1, 0
2063, '1', 1, 1, 1, 32.157, 9.111, 0, 0, 0, 0, 1, 1, 0
2064, '1', 1, 1, 1, 4.924, 1.395, 0, 0, 0, 0, 1, 1, 0
2065, '1', 1, 1, 1, 38.402, 10.881, 0, 0, 0, 0, 1, 1, 0
2066, '1', 1, 1, 1, 3.486, 0.987, 0, 0, 0, 0, 1, 1, 0
2067, '1', 1, 1, 1, 26.448, 7.494, 0, 0, 0, 0, 1, 1, 0
2068, '1', 1, 1, 1, 2.823, 0.8, 0, 0, 0, 0, 1, 1, 0
2069, '1', 1, 1, 1, 10.744, 3.044, 0, 0, 0, 0, 1, 1, 0
2072, '1', 1, 1, 1, 4.756, 1.348, 0, 0, 0, 0, 1, 1, 0
2079, '1', 1, 1, 1, 2.195, 0.622, 0, 0, 0, 0, 1, 1, 0
2080, '1', 1, 1, 1, 8.298, 2.351, 0, 0, 0, 0, 1, 1, 0
2081, '1', 1, 1, 1, 2.188, 0.62, 0, 0, 0, 0, 1, 1, 0
2082, '1', 1, 1, 1, 28.929, 8.197, 0, 0, 0, 0, 1, 1, 0
2086, '1', 1, 1, 1, 1.075, 0.305, 0, 0, 0, 0, 1, 1, 0
2087, '1', 1, 1, 1, 3.87, 1.096, 0, 0, 0, 0, 1, 1, 0
2090, '1', 1, 1, 1, 1.188, 0.337, 0, 0, 0, 0, 1, 1, 0
2091, '1', 1, 1, 1, 8.354, 2.367, 0, 0, 0, 0, 1, 1, 0
2092, '1', 1, 1, 1, 11.815, 3.347, 0, 0, 0, 0, 1, 1, 0
2106, '1', 1, 1, 1, 7.059, 2, 0, 0, 0, 0, 1, 1, 0
2107, '1', 1, 1, 1, 36.339, 10.296, 0, 0, 0, 0, 1, 1, 0
2108, '1', 1, 1, 1, 1.051, 0.298, 0, 0, 0, 0, 1, 1, 0
2109, '1', 1, 1, 1, 16.569, 4.695, 0, 0, 0, 0, 1, 1, 0
2110, '1', 1, 1, 1, 4.209, 1.193, 0, 0, 0, 0, 1, 1, 0
2111, '1', 1, 1, 1, 6.837, 1.937, 0, 0, 0, 0, 1, 1, 0
2112, '1', 1, 1, 1, 2.226, 0.631, 0, 0, 0, 0, 1, 1, 0
2114, '1', 1, 1, 1, 34.685, 9.828, 0, 0, 0, 0, 1, 1, 0
2121, '1', 1, 1, 1, 1.144, 0.324, 0, 0, 0, 0, 1, 1, 0
2122, '1', 1, 1, 1, 3.295, 0.934, 0, 0, 0, 0, 1, 1, 0
2124, '1', 1, 1, 1, 10.431, 2.956, 0, 0, 0, 0, 1, 1, 0
2125, '1', 1, 1, 1, 1.988, 0.563, 0, 0, 0, 0, 1, 1, 0
2126, '1', 1, 1, 1, 6.976, 1.977, 0, 0, 0, 0, 1, 1, 0
2129, '1', 1, 1, 1, 3.251, 0.921, 0, 0, 0, 0, 1, 1, 0
2132, '1', 1, 1, 1, 5.851, 1.658, 0, 0, 0, 0, 1, 1, 0
2133, '1', 1, 1, 1, 2.783, 0.789, 0, 0, 0, 0, 1, 1, 0
3002, '1', 1, 1, 1, 55.856, 15.826, 0, 0, 0, 0, 1, 1, 0
3005, '1', 1, 1, 1, 3.633, 1.03, 0, 0, 0, 0, 1, 1, 0
3006, '1', 1, 1, 1, 3.636, 1.03, 0, 0, 0, 0, 1, 1, 0
3007, '1', 1, 1, 1, 7.406, 2.098, 0, 0, 0, 0, 1, 1, 0
3008, '1', 1, 1, 1, 9.803, 2.778, 0, 0, 0, 0, 1, 1, 0
3009, '1', 1, 1, 1, 6.206, 1.758, 0, 0, 0, 0, 1, 1, 0
3010, '1', 1, 1, 1, 2.312, 0.655, 0, 0, 0, 0, 1, 1, 0
3011, '1', 1, 1, 1, 13.431, 3.806, 0, 0, 0, 0, 1, 1, 0
3012, '1', 1, 1, 1, 0.279, 0.079, 0, 0, 0, 0, 1, 1, 0
3013, '1', 1, 1, 1, 31.95, 9.053, 0, 0, 0, 0, 1, 1, 0
3014, '1', 1, 1, 1, 10.889, 3.085, 0, 0, 0, 0, 1, 1, 0
3015, '1', 1, 1, 1, 2.655, 0.752, 0, 0, 0, 0, 1, 1, 0
3021, '1', 1, 1, 1, 0.961, 0.273, 0, 0, 0, 0, 1, 1, 0
3022, '1', 1, 1, 1, 12.17, 3.448, 0, 0, 0, 0, 1, 1, 0
3023, '1', 1, 1, 1, 5.151, 1.459, 0, 0, 0, 0, 1, 1, 0
3024, '1', 1, 1, 1, 5.014, 1.421, 0, 0, 0, 0, 1, 1, 0
3025, '1', 1, 1, 1, 6.767, 1.917, 0, 0, 0, 0, 1, 1, 0
3029, '1', 1, 1, 1, 2.408, 0.682, 0, 0, 0, 0, 1, 1, 0
3030, '1', 1, 1, 1, 64.2, 18.19, 0, 0, 0, 0, 1, 1, 0
3031, '1', 1, 1, 1, 7.292, 2.066, 0, 0, 0, 0, 1, 1, 0
3032, '1', 1, 1, 1, 36.061, 10.217, 0, 0, 0, 0, 1, 1, 0
3035, '1', 1, 1, 1, 1.715, 0.486, 0, 0, 0, 0, 1, 1, 0
3036, '1', 1, 1, 1, 2.872, 0.813, 0, 0, 0, 0, 1, 1, 0
3040, '1', 1, 1, 1, 7.229, 2.048, 0, 0, 0, 0, 1, 1, 0
3042, '1', 1, 1, 1, 4.332, 1.227, 0, 0, 0, 0, 1, 1, 0
3049, '1', 1, 1, 1, 5.238, 1.484, 0, 0, 0, 0, 1, 1, 0
3051, '1', 1, 1, 1, 71.906, 20.373, 0, 0, 0, 0, 1, 1, 0
3052, '1', 1, 1, 1, 3.997, 1.132, 0, 0, 0, 0, 1, 1, 0
3066, '1', 1, 1, 1, 10.905, 3.09, 0, 0, 0, 0, 1, 1, 0
3069, '1', 1, 1, 1, 1.887, 0.535, 0, 0, 0, 0, 1, 1, 0
3072, '1', 1, 1, 1, 2.962, 0.839, 0, 0, 0, 0, 1, 1, 0
3075, '1', 1, 1, 1, 6.03, 1.708, 0, 0, 0, 0, 1, 1, 0
3076, '1', 1, 1, 1, 5.342, 1.514, 0, 0, 0, 0, 1, 1, 0
3077, '1', 1, 1, 1, 33.978, 9.627, 0, 0, 0, 0, 1, 1, 0
3093, '1', 1, 1, 1, 2.497, 0.708, 0, 0, 0, 0, 1, 1, 0
3099, '1', 1, 1, 1, 5.978, 1.694, 0, 0, 0, 0, 1, 1, 0
3100, '1', 1, 1, 1, 4.22, 1.196, 0, 0, 0, 0, 1, 1, 0
3101, '1', 1, 1, 1, 4.668, 1.323, 0, 0, 0, 0, 1, 1, 0
3102, '1', 1, 1, 1, 37.245, 10.553, 0, 0, 0, 0, 1, 1, 0
3103, '1', 1, 1, 1, 19.459, 5.514, 0, 0, 0, 0, 1, 1, 0
3107, '1', 1, 1, 1, 7.358, 2.085, 0, 0, 0, 0, 1, 1, 0
3108, '1', 1, 1, 1, 11.642, 3.299, 0, 0, 0, 0, 1, 1, 0
3114, '1', 1, 1, 1, 48.654, 13.785, 0, 0, 0, 0, 1, 1, 0
3115, '1', 1, 1, 1, 4.739, 1.343, 0, 0, 0, 0, 1, 1, 0
3123, '1', 1, 1, 1, 32.697, 9.264, 0, 0, 0, 0, 1, 1, 0
3124, '1', 1, 1, 1, 31.941, 9.05, 0, 0, 0, 0, 1, 1, 0
3125, '1', 1, 1, 1, 45.164, 12.797, 0, 0, 0, 0, 1, 1, 0
3126, '1', 1, 1, 1, 4.928, 1.396, 0, 0, 0, 0, 1, 1, 0
3128, '1', 1, 1, 1, 1.396, 0.395, 0, 0, 0, 0, 1, 1, 0
3130, '1', 1, 1, 1, 45.608, 12.922, 0, 0, 0, 0, 1, 1, 0
3132, '1', 1, 1, 1, 4.733, 1.341, 0, 0, 0, 0, 1, 1, 0
3136, '1', 1, 1, 1, 23.239, 6.584, 0, 0, 0, 0, 1, 1, 0
3138, '1', 1, 1, 1, 5.417, 1.535, 0, 0, 0, 0, 1, 1, 0
3139, '1', 1, 1, 1, 7.383, 2.091, 0, 0, 0, 0, 1, 1, 0
3140, '1', 1, 1, 1, 0.11, 0.031, 0, 0, 0, 0, 1, 1, 0
3142, '1', 1, 1, 1, 3.498, 0.992, 0, 0, 0, 0, 1, 1, 0
3143, '1', 1, 1, 1, 2.848, 0.807, 0, 0, 0, 0, 1, 1, 0
3144, '1', 1, 1, 1, 2.75, 0.779, 0, 0, 0, 0, 1, 1, 0
3145, '1', 1, 1, 1, 1.455, 0.412, 0, 0, 0, 0, 1, 1, 0
3146, '1', 1, 1, 1, 5.957, 1.688, 0, 0, 0, 0, 1, 1, 0
3147, '1', 1, 1, 1, 17.202, 4.874, 0, 0, 0, 0, 1, 1, 0
4002, '1', 1, 1, 1, 0.549, 0.155, 0, 0, 0, 0, 1, 1, 0
4003, '1', 1, 1, 1, 69.287, 19.631, 0, 0, 0, 0, 1, 1, 0
4005, '1', 1, 1, 1, 89.343, 25.314, 0, 0, 0, 0, 1, 1, 0
4006, '1', 1, 1, 1, 1.499, 0.424, 0, 0, 0, 0, 1, 1, 0
4007, '1', 1, 1, 1, 99.967, 28.324, 0, 0, 0, 0, 1, 1, 0
4008, '1', 1, 1, 1, 17.686, 5.011, 0, 0, 0, 0, 1, 1, 0
4011, '1', 1, 1, 1, 8.736, 2.475, 0, 0, 0, 0, 1, 1, 0
4012, '1', 1, 1, 1, 7.479, 2.119, 0, 0, 0, 0, 1, 1, 0
4013, '1', 1, 1, 1, 50.267, 14.242, 0, 0, 0, 0, 1, 1, 0
4015, '1', 1, 1, 1, 86.985, 24.646, 0, 0, 0, 0, 1, 1, 0
4016, '1', 1, 1, 1, 3.4, 0.963, 0, 0, 0, 0, 1, 1, 0
4017, '1', 1, 1, 1, 48.75, 13.812, 0, 0, 0, 0, 1, 1, 0
4018, '1', 1, 1, 1, 3.885, 1.101, 0, 0, 0, 0, 1, 1, 0
4019, '1', 1, 1, 1, 73.933, 20.947, 0, 0, 0, 0, 1, 1, 0
4020, '1', 1, 1, 1, 64.127, 18.169, 0, 0, 0, 0, 1, 1, 0
4021, '1', 1, 1, 1, 17.402, 4.931, 0, 0, 0, 0, 1, 1, 0
4022, '1', 1, 1, 1, 3.029, 0.858, 0, 0, 0, 0, 1, 1, 0
4023, '1', 1, 1, 1, 2.756, 0.781, 0, 0, 0, 0, 1, 1, 0
4027, '1', 1, 1, 1, 35.445, 10.043, 0, 0, 0, 0, 1, 1, 0
4031, '1', 1, 1, 1, 1.496, 0.424, 0, 0, 0, 0, 1, 1, 0
4032, '1', 1, 1, 1, 49.744, 14.094, 0, 0, 0, 0, 1, 1, 0
4033, '1', 1, 1, 1, 68.719, 19.47, 0, 0, 0, 0, 1, 1, 0
4034, '1', 1, 1, 1, 20.488, 5.805, 0, 0, 0, 0, 1, 1, 0
4035, '1', 1, 1, 1, 43.088, 12.208, 0, 0, 0, 0, 1, 1, 0
4036, '1', 1, 1, 1, 19.089, 5.409, 0, 0, 0, 0, 1, 1, 0
4037, '1', 1, 1, 1, 15.634, 4.43, 0, 0, 0, 0, 1, 1, 0
4038, '1', 1, 1, 1, 45.344, 12.847, 0, 0, 0, 0, 1, 1, 0
4040, '1', 1, 1, 1, 122.831, 34.802, 0, 0, 0, 0, 1, 1, 0
4042, '1', 1, 1, 1, 117.124, 33.185, 0, 0, 0, 0, 1, 1, 0
4043, '1', 1, 1, 1, 1.347, 0.382, 0, 0, 0, 0, 1, 1, 0
4048, '1', 1, 1, 1, 7.133, 2.021, 0, 0, 0, 0, 1, 1, 0
...
0 / END OF LOAD DATA, BEGIN FIXED SHUNT DATA
0 / END OF FIXED SHUNT DATA, BEGIN GENERATOR DATA
1004, '1', 55.6, -30.38, 44.94, -30.38, 1.0219743, 0, 0, 0, 1.0, 0, 0, 1, 1, 1, 55.6, 0, 1, 1, 0, 1, 0, 1, 0, 1, 0, 1
1006, '1', 23, -4.94, 7.31, -4.94, 1.0021415, 0, 0, 0, 1.0, 0, 0, 1, 1, 1, 23, 0, 1, 1, 0, 1, 0, 1, 0, 1, 0, 1
1009, '1', 5.9, -11.88, 17.57, -11.88, 1.0096094, 0, 0, 0, 1.0, 0, 0, 1, 1, 1, 5.9, 0, 1, 1, 0, 1, 0, 1, 0, 1, 0, 1
1011, '1', 0, 0, 0, 0, 1.0505725, 0, 0, 0, 1.0, 0, 0, 1, 1, 1, 0, 0, 1, 1, 0, 1, 0, 1, 0, 1, 0, 1
1021, '1', 71.3, -28.73, 42.49, -28.73, 1, 0, 0, 0, 1.0, 0, 0, 1, 1, 1, 71.3, 0, 1, 1, 0, 1, 0, 1, 0, 1, 0, 1
1023, '1', 5.9, -25.92, 38.34, -25.92, 1.01, 0, 0, 0, 1.0, 0, 0, 1, 1, 1, 5.9, 0, 1, 1, 0, 1, 0, 1, 0, 1, 0, 1
1026, '1', 64.6, -17.88, 26.45, -17.88, 1.03, 0, 0, 0, 1.0, 0, 0, 1, 1, 1, 64.6, 0, 1, 1, 0, 1, 0, 1, 0, 1, 0, 1
1033, '1', 2, -40.03, 59.21, -40.03, 1.0156225, 0, 0, 0, 1.0, 0, 0, 1, 1, 1, 2, 0, 1, 1, 0, 1, 0, 1, 0, 1, 0, 1
1035, '1', 53.8, -12.96, 19.17, -12.96, 1, 0, 0, 0, 1.0, 0, 0, 1, 1, 1, 53.8, 0, 1, 1, 0, 1, 0, 1, 0, 1, 0, 1
1039, '1', 18.1, -21.24, 31.42, -21.24, 1, 0, 0, 0, 1.0, 0, 0, 1, 1, 1, 18.1, 0, 1, 1, 0, 1, 0, 1, 0, 1, 0, 1
1042, '1', 90.345, 21.09, 25.96, -17.55, 1.0066849, 0, 0, 0, 1.0, 0, 0, 1, 0, 1, 91.5, 0, 1, 1, 0, 1, 0, 1, 0, 1, 0, 1
1043, '1', 44.1, -8.47, 12.52, -8.47, 1.0183068, 0, 0, 0, 1.0, 0, 0, 1, 1, 1, 44.1, 0, 1, 1, 0, 1, 0, 1, 0, 1, 0, 1
1048, '1', 99.37, -13.265, 165.53, -36.1, 1.0109279, 0, 0, 0, 1.0, 0, 0, 1, 0, 1, 325.2, 97.56, 1, 1, 0, 1, 0, 1, 0, 1, 0, 1
1049, '1', 119.663, 3.735, 165.53, -36.1, 1.0109279, 0, 0, 0, 1.0, 0, 0, 1, 0, 1, 325.2, 97.56, 1, 1, 0, 1, 0, 1, 0, 1, 0, 1
1050, '1', 27.168299, -9.92, 45.5, -9.92, 1.0015616, 0, 0, 0, 1.0, 0, 0, 1, 1, 1, 89.4, 26.82, 1, 1, 0, 1, 0, 1, 0, 1, 0, 1
1051, '1', 27.168299, -9.92, 45.5, -9.92, 1, 0, 0, 0, 1.0, 0, 0, 1, 1, 1, 89.4, 26.82, 1, 1, 0, 1, 0, 1, 0, 1, 0, 1
1052, '1', 27.168299, -9.92, 45.5, -9.92, 1.004516, 0, 0, 0, 1.0, 0, 0, 1, 1, 1, 89.4, 26.82, 1, 1, 0, 1, 0, 1, 0, 1, 0, 1
1053, '1', 54.635, -19.85, 91.01, -19.85, 1.0198098, 0, 0, 0, 1.0, 0, 0, 1, 0, 1, 178.8, 53.64, 1, 1, 0, 1, 0, 1, 0, 1, 0, 1
1057, '1', 15.863, -11.645, 25.56, -17.28, 1.015, 0, 0, 0, 1.0, 0, 0, 1, 0, 1, 17, 0, 1, 1, 0, 1, 0, 1, 0, 1, 0, 1
1059, '1', 5.294, 2.85, 2.85, -0.62, 1.0272229, 0, 0, 0, 1.0, 0, 0, 1, 0, 1, 5.6, 1.68, 1, 1, 0, 1, 0, 1, 0, 1, 0, 1
1060, '1', 0.611, 1.02, 1.02, -0.22, 1.0272229, 0, 0, 0, 1.0, 0, 0, 1, 0, 1, 2, 0.6, 1, 1, 0, 1, 0, 1, 0, 1, 0, 1
1062, '1', -0.006, 0, 0, 0, 1.0153983, 0, 0, 0, 1.0, 0, 0, 1, 0, 1, 1.5, 0.45, 1, 1, 0, 1, 0, 1, 0, 1, 0, 1
1063, '1', 81.116, 0, 0, 0, 1.0153983, 0, 0, 0, 1.0, 0, 0, 1, 0, 1, 230, 69, 1, 1, 0, 1, 0, 1, 0, 1, 0, 1
1066, '1', 87.9, -20.52, 30.35, -20.52, 1, 0, 0, 0, 1.0, 0, 0, 1, 1, 1, 87.9, 0, 1, 1, 0, 1, 0, 1, 0, 1, 0, 1
1070, '1', 124.5, -23.11, 34.19, -23.11, 1.04, 0, 0, 0, 1.0, 0, 0, 1, 1, 1, 124.5, 0, 1, 1, 0, 1, 0, 1, 0, 1, 0, 1
1072, '1', 58.388532, -21.33, 97.8, -21.33, 1.01, 0, 0, 0, 1.0, 0, 0, 1, 1, 1, 192.13, 57.64, 1, 1, 0, 1, 0, 1, 0, 1, 0, 1
1073, '1', 58.388532, -21.33, 97.8, -21.33, 1.01, 0, 0, 0, 1.0, 0, 0, 1, 1, 1, 192.13, 57.64, 1, 1, 0, 1, 0, 1, 0, 1, 0, 1
1074, '1', 58.388532, -21.33, 97.8, -21.33, 1.01, 0, 0, 0, 1.0, 0, 0, 1, 1, 1, 192.13, 57.64, 1, 1, 0, 1, 0, 1, 0, 1, 0, 1
1075, '1', 58.388532, -21.33, 97.8, -21.33, 1.01, 0, 0, 0, 1.0, 0, 0, 1, 1, 1, 192.13, 57.64, 1, 1, 0, 1, 0, 1, 0, 1, 0, 1
1076, '1', 109.615, 2.905, 97.8, -21.33, 1.0143733, 0, 0, 0, 1.0, 0, 0, 1, 0, 1, 192.13, 57.64, 1, 1, 0, 1, 0, 1, 0, 1, 0, 1
1077, '1', 109.615, 2.567, 97.8, -21.33, 1.0143733, 0, 0, 0, 1.0, 0, 0, 1, 0, 1, 192.13, 57.64, 1, 1, 0, 1, 0, 1, 0, 1, 0, 1
1078, '1', 29.022065, -10.6, 48.61, -10.6, 1.01, 0, 0, 0, 1.0, 0, 0, 1, 1, 1, 95.5, 28.65, 1, 1, 0, 1, 0, 1, 0, 1, 0, 1
1079, '1', 29.022065, -10.6, 48.61, -10.6, 1.0600784, 0, 0, 0, 1.0, 0, 0, 1, 1, 1, 95.5, 28.65, 1, 1, 0, 1, 0, 1, 0, 1, 0, 1
1080, '1', 29.022065, -10.6, 48.61, -10.6, 1.01, 0, 0, 0, 1.0, 0, 0, 1, 1, 1, 95.5, 28.65, 1, 1, 0, 1, 0, 1, 0, 1, 0, 1
1081, '1', 85.95, -31.8, 145.83, -31.8, 1.0216591, 0, 0, 0, 1.0, 0, 0, 1, 0, 1, 286.5, 85.95, 1, 1, 0, 1, 0, 1, 0, 1, 0, 1
1082, '1', 108.4, -21.6, 31.95, -21.6, 1.0160543, 0, 0, 0, 1.0, 0, 0, 1, 1, 1, 108.4, 0, 1, 1, 0, 1, 0, 1, 0, 1, 0, 1
1084, '1', 65.5, -16.63, 24.6, -16.63, 1.0211061, 0, 0, 0, 1.0, 0, 0, 1, 1, 1, 65.5, 0, 1, 1, 0, 1, 0, 1, 0, 1, 0, 1
1088, '1', 64.5, -10.8, 15.97, -10.8, 1, 0, 0, 0, 1.0, 0, 0, 1, 1, 1, 64.5, 0, 1, 1, 0, 1, 0, 1, 0, 1, 0, 1
1090, '1', 118.5, -21.96, 32.48, -21.96, 1.02, 0, 0, 0, 1.0, 0, 0, 1, 1, 1, 118.5, 0, 1, 1, 0, 1, 0, 1, 0, 1, 0, 1
1090, '2', 28, -5.18, 7.67, -5.18, 1.02, 0, 0, 0, 1.0, 0, 0, 1, 1, 1, 28, 0, 1, 1, 0, 1, 0, 1, 0, 1, 0, 1
2004, '1', 0, 0, 199.43, -43.49, 1.0317455, 0, 0, 0, 1.0, 0, 0, 1, 0, 1, 391.8, 117.54, 1, 1, 0, 1, 0, 1, 0, 1, 0, 1
2005, '1', 0, 0, 199.43, -43.49, 1.0317455, 0, 0, 0, 1.0, 0, 0, 1, 0, 1, 391.8, 117.54, 1, 1, 0, 1, 0, 1, 0, 1, 0, 1
2006, '1', 119.721, -33.249, 199.43, -43.49, 1.0317455, 0, 0, 0, 1.0, 0, 0, 1, 0, 1, 391.8, 117.54, 1, 1, 0, 1, 0, 1, 0, 1, 0, 1
2013, '1', 83.5, -28.89, 42.73, -28.89, 1.04337, 0, 0, 0, 1.0, 0, 0, 1, 1, 1, 83.5, 0, 1, 1, 0, 1, 0, 1, 0, 1, 0, 1
2019, '1', 154.434, -27.207, 46.43, -31.39, 1.033064, 0, 0, 0, 1.0, 0, 0, 1, 0, 1, 156.5, 0, 1, 1, 0, 1, 0, 1, 0, 1, 0, 1
2023, '1', 25.324651, -9.25, 42.42, -9.25, 1.0294127, 0, 0, 0, 1.0, 0, 0, 1, 1, 1, 83.33, 25, 1, 1, 0, 1, 0, 1, 0, 1, 0, 1
2024, '1', 50.649341, -18.5, 84.83, -18.5, 1.028119, 0, 0, 0, 1.0, 0, 0, 1, 1, 1, 166.67, 50, 1, 1, 0, 1, 0, 1, 0, 1, 0, 1
2042, '1', 59.7, -11.46, 16.95, -11.46, 1.0340532, 0, 0, 0, 1.0, 0, 0, 1, 1, 1, 59.7, 0, 1, 1, 0, 1, 0, 1, 0, 1, 0, 1
2056, '1', 5.896, -0.73, 2.8, -0.73, 1.0404694, 0, 0, 0, 1.0, 0, 0, 1, 0, 1, 6, 1.8, 1, 1, 0, 1, 0, 1, 0, 1, 0, 1
2057, '1', 218.8051, -87.84, 335.52, -87.84, 1.0386012, 0, 0, 0, 1.0, 0, 0, 1, 1, 1, 720, 216, 1, 1, 0, 1, 0, 1, 0, 1, 0, 1
2059, '1', 21.4, -11.52, 17.04, -11.52, 1.0324929, 0, 0, 0, 1.0, 0, 0, 1, 1, 1, 21.4, 0, 1, 1, 0, 1, 0, 1, 0, 1, 0, 1
2062, '1', 42.8, -19.5, 28.84, -19.5, 1.02, 0, 0, 0, 1.0, 0, 0, 1, 1, 1, 42.8, 0, 1, 1, 0, 1, 0, 1, 0, 1, 0, 1
2071, '1', 85.1, -21.6, 31.95, -21.6, 1.0253145, 0, 0, 0, 1.0, 0, 0, 1, 1, 1, 85.1, 0, 1, 1, 0, 1, 0, 1, 0, 1, 0, 1
2076, '1', 12.6, -4.32, 6.39, -4.32, 1.04, 0, 0, 0, 1.0, 0, 0, 1, 1, 1, 12.6, 0, 1, 1, 0, 1, 0, 1, 0, 1, 0, 1
2078, '1', 10.3, -16.2, 23.96, -16.2, 1.02, 0, 0, 0, 1.0, 0, 0, 1, 1, 1, 10.3, 0, 1, 1, 0, 1, 0, 1, 0, 1, 0, 1
2083, '1', 14.477919, -2.22, 10.18, -2.22, 1.0384262, 0, 0, 0, 1.0, 0, 0, 1, 1, 1, 20, 6, 1, 1, 0, 1, 0, 1, 0, 1, 0, 1
2084, '1', 18.784, -2.22, 10.18, -2.22, 1.0363417, 0, 0, 0, 1.0, 0, 0, 1, 0, 1, 20, 6, 1, 1, 0, 1, 0, 1, 0, 1, 0, 1
2085, '1', 12.37, 10.625, 20.36, -4.44, 1.0363417, 0, 0, 0, 1.0, 0, 0, 1, 0, 1, 40, 12, 1, 1, 0, 1, 0, 1, 0, 1, 0, 1
2089, '1', 10.4, -9.73, 14.4, -9.73, 1.025388, 0, 0, 0, 1.0, 0, 0, 1, 1, 1, 10.4, 0, 1, 1, 0, 1, 0, 1, 0, 1, 0, 1
2094, '1', 7.105, -1.44, 2.13, -1.44, 1.0382984, 0, 0, 0, 1.0, 0, 0, 1, 0, 1, 7.2, 0, 1, 1, 0, 1, 0, 1, 0, 1, 0, 1
2095, '1', 19.247, -11.45, 16.93, -11.45, 1.0382984, 0, 0, 0, 1.0, 0, 0, 1, 0, 1, 57, 0, 1, 1, 0, 1, 0, 1, 0, 1, 0, 1
2099, '1', 2.5, -1.44, 2.13, -1.44, 1.0007401, 0, 0, 0, 1.0, 0, 0, 1, 1, 1, 2.5, 0, 1, 1, 0, 1, 0, 1, 0, 1, 0, 1
2100, '1', 38.2, -21.6, 31.95, -21.6, 1.0133525, 0, 0, 0, 1.0, 0, 0, 1, 1, 1, 38.2, 0, 1, 1, 0, 1, 0, 1, 0, 1, 0, 1
2103, '1', 0, 0, 136.28, -29.72, 1.0306761, 0, 0, 0, 1.0, 0, 0, 1, 0, 1, 267.73, 80.32, 1, 1, 0, 1, 0, 1, 0, 1, 0, 1
2104, '1', 80.32, -29.72, 136.28, -29.72, 1.0306761, 0, 0, 0, 1.0, 0, 0, 1, 0, 1, 267.73, 80.32, 1, 1, 0, 1, 0, 1, 0, 1, 0, 1
2105, '1', 0, 0, 136.28, -29.72, 1.0306761, 0, 0, 0, 1.0, 0, 0, 1, 0, 1, 267.73, 80.32, 1, 1, 0, 1, 0, 1, 0, 1, 0, 1
2115, '1', 56.129663, -20.5, 94.02, -20.5, 1.0247373, 0, 0, 0, 1.0, 0, 0, 1, 1, 1, 184.72, 55.41, 1, 1, 0, 1, 0, 1, 0, 1, 0, 1
2116, '1', 56.129663, -20.5, 94.02, -20.5, 1.0283166, 0, 0, 0, 1.0, 0, 0, 1, 1, 1, 184.72, 55.41, 1, 1, 0, 1, 0, 1, 0, 1, 0, 1
2117, '1', 56.129663, -20.5, 94.02, -20.5, 1.0232556, 0, 0, 0, 1.0, 0, 0, 1, 1, 1, 184.72, 55.41, 1, 1, 0, 1, 0, 1, 0, 1, 0, 1
2118, '1', 56.129663, -20.5, 94.02, -20.5, 1.0223375, 0, 0, 0, 1.0, 0, 0, 1, 1, 1, 184.72, 55.41, 1, 1, 0, 1, 0, 1, 0, 1, 0, 1
2119, '1', 56.129663, -20.5, 94.02, -20.5, 1.0274556, 0, 0, 0, 1.0, 0, 0, 1, 1, 1, 184.72, 55.41, 1, 1, 0, 1, 0, 1, 0, 1, 0, 1
2120, '1', 56.129663, -20.5, 94.02, -20.5, 1.0227855, 0, 0, 0, 1.0, 0, 0, 1, 1, 1, 184.72, 55.41, 1, 1, 0, 1, 0, 1, 0, 1, 0, 1
2123, '1', 162.7, -26.16, 38.7, -26.16, 1.0437928, 0, 0, 0, 1.0, 0, 0, 1, 1, 1, 162.7, 0, 1, 1, 0, 1, 0, 1, 0, 1, 0, 1
2127, '1', 243.5, 28.725407, 61.47, -41.56, 1.0515493, 0, 0, 0, 1.0, 0, 0, 1, 1, 1, 243.5, 0, 1, 1, 0, 1, 0, 1, 0, 1, 0, 1
3004, '1', 29.3, -5.4, 7.99, -5.4, 1.0166589, 0, 0, 0, 1.0, 0, 0, 1, 1, 1, 29.3, 0, 1, 1, 0, 1, 0, 1, 0, 1, 0, 1
3017, '1', 55.2, -24.41, 36.1, -24.41, 1.01, 0, 0, 0, 1.0, 0, 0, 1, 1, 1, 55.2, 0, 1, 1, 0, 1, 0, 1, 0, 1, 0, 1
3020, '1', 57.2, -21.6, 31.95, -21.6, 1.03, 0, 0, 0, 1.0, 0, 0, 1, 1, 1, 57.2, 0, 1, 1, 0, 1, 0, 1, 0, 1, 0, 1
3028, '1', 36.1, -28.8, 42.6, -28.8, 1.04, 0, 0, 0, 1.0, 0, 0, 1, 1, 1, 36.1, 0, 1, 1, 0, 1, 0, 1, 0, 1, 0, 1
3034, '1', 99.2, -18.79, 27.8, -18.79, 1.03, 0, 0, 0, 1.0, 0, 0, 1, 1, 1, 99.2, 0, 1, 1, 0, 1, 0, 1, 0, 1, 0, 1
3039, '1', 153.4, -30.1, 44.52, -30.1, 1.04, 0, 0, 0, 1.0, 0, 0, 1, 1, 1, 153.4, 0, 1, 1, 0, 1, 0, 1, 0, 1, 0, 1
3043, '1', 0.39, -0.14, 0.66, -0.14, 1.0463807, 0, 0, 0, 1.0, 0, 0, 1, 0, 1, 1.3, 0.39, 1, 1, 0, 1, 0, 1, 0, 1, 0, 1
3044, '1', 27.318, 7.733, 45.5, -9.92, 1.0463807, 0, 0, 0, 1.0, 0, 0, 1, 0, 1, 89.4, 26.82, 1, 1, 0, 1, 0, 1, 0, 1, 0, 1
3045, '1', 0, 0, 227.52, -49.62, 1.0463807, 0, 0, 0, 1.0, 0, 0, 1, 0, 1, 447, 134.1, 1, 1, 0, 1, 0, 1, 0, 1, 0, 1
3048, '1', 159, -34.7, 51.33, -34.7, 1.0595623, 0, 0, 0, 1.0, 0, 0, 1, 1, 1, 159, 0, 1, 1, 0, 1, 0, 1, 0, 1, 0, 1
3055, '1', 73.5, -35.3, 52.22, -35.3, 1.04, 0, 0, 0, 1.0, 0, 0, 1, 1, 1, 73.5, 0, 1, 1, 0, 1, 0, 1, 0, 1, 0, 1
3056, '1', 73.5, -35.3, 52.22, -35.3, 1.04, 0, 0, 0, 1.0, 0, 0, 1, 1, 1, 73.5, 0, 1, 1, 0, 1, 0, 1, 0, 1, 0, 1
3057, '1', 73.5, -35.3, 52.22, -35.3, 1.04, 0, 0, 0, 1.0, 0, 0, 1, 1, 1, 73.5, 0, 1, 1, 0, 1, 0, 1, 0, 1, 0, 1
3060, '1', 74.6, -23.85, 35.28, -23.85, 1.04, 0, 0, 0, 1.0, 0, 0, 1, 1, 1, 74.6, 0, 1, 1, 0, 1, 0, 1, 0, 1, 0, 1
3061, '1', 0.1, -23.85, 35.28, -23.85, 1.04, 0, 0, 0, 1.0, 0, 0, 1, 1, 1, 0.1, 0, 1, 1, 0, 1, 0, 1, 0, 1, 0, 1
3062, '1', 74.6, -23.85, 35.28, -23.85, 1.04, 0, 0, 0, 1.0, 0, 0, 1, 1, 1, 74.6, 0, 1, 1, 0, 1, 0, 1, 0, 1, 0, 1
3063, '1', 74.6, -23.85, 35.28, -23.85, 1.04, 0, 0, 0, 1.0, 0, 0, 1, 1, 1, 74.6, 0, 1, 1, 0, 1, 0, 1, 0, 1, 0, 1
3065, '1', 42.4, -11.59, 17.15, -11.59, 1.0015258, 0, 0, 0, 1.0, 0, 0, 1, 1, 1, 42.4, 0, 1, 1, 0, 1, 0, 1, 0, 1, 0, 1
3068, '1', 24.2, -21.6, 31.95, -21.6, 1.04, 0, 0, 0, 1.0, 0, 0, 1, 1, 1, 24.2, 0, 1, 1, 0, 1, 0, 1, 0, 1, 0, 1
3071, '1', 0.6, -24.51, 36.25, -24.51, 1.003822, 0, 0, 0, 1.0, 0, 0, 1, 1, 1, 0.6, 0, 1, 1, 0, 1, 0, 1, 0, 1, 0, 1
3074, '1', 21.4, -14.37, 21.26, -14.37, 1, 0, 0, 0, 1.0, 0, 0, 1, 1, 1, 21.4, 0, 1, 1, 0, 1, 0, 1, 0, 1, 0, 1
3081, '1', 197.9, -35.86, 53.04, -35.86, 1.04, 0, 0, 0, 1.0, 0, 0, 1, 1, 1, 197.9, 0, 1, 1, 0, 1, 0, 1, 0, 1, 0, 1
3084, '1', 154.4, -33.48, 49.52, -33.48, 1.0073912, 0, 0, 0, 1.0, 0, 0, 1, 1, 1, 154.4, 0, 1, 1, 0, 1, 0, 1, 0, 1, 0, 1
3086, '1', 51.4, -10.8, 15.97, -10.8, 1, 0, 0, 0, 1.0, 0, 0, 1, 1, 1, 51.4, 0, 1, 1, 0, 1, 0, 1, 0, 1, 0, 1
3087, '1', 50.689, -4.739, 15.97, -10.8, 1.0178763, 0, 0, 0, 1.0, 0, 0, 1, 0, 1, 51.4, 0, 1, 1, 0, 1, 0, 1, 0, 1, 0, 1
3092, '1', 42.9, -28.8, 42.6, -28.8, 1.04, 0, 0, 0, 1.0, 0, 0, 1, 1, 1, 42.9, 0, 1, 1, 0, 1, 0, 1, 0, 1, 0, 1
3095, '1', 63.6, -17.37, 25.69, -17.37, 1.04, 0, 0, 0, 1.0, 0, 0, 1, 1, 1, 63.6, 0, 1, 1, 0, 1, 0, 1, 0, 1, 0, 1
3098, '1', 129.7, -23.04, 34.08, -23.04, 1.04, 0, 0, 0, 1.0, 0, 0, 1, 1, 1, 129.7, 0, 1, 1, 0, 1, 0, 1, 0, 1, 0, 1
3105, '1', 0, -0.74, 17.071, -0.74, 1.0224053, 0, 0, 0, 1.0, 0, 0, 1, 1, 1, 0, 0, 1, 1, 0, 1, 0, 1, 0, 1, 0, 1
3106, '1', 0, -2.69, 62.477, -2.69, 1.0182034, 0, 0, 0, 1.0, 0, 0, 1, 1, 1, 0, 0, 1, 1, 0, 1, 0, 1, 0, 1, 0, 1
3110, '1', 69.7, -12.1, 17.89, -12.1, 1.04, 0, 0, 0, 1.0, 0, 0, 1, 1, 1, 69.7, 0, 1, 1, 0, 1, 0, 1, 0, 1, 0, 1
3112, '1', 39.9, -10.77, 15.93, -10.77, 1, 0, 0, 0, 1.0, 0, 0, 1, 1, 1, 39.9, 0, 1, 1, 0, 1, 0, 1, 0, 1, 0, 1
3113, '1', 10.1, -10.77, 15.93, -10.77, 1, 0, 0, 0, 1.0, 0, 0, 1, 1, 1, 10.1, 0, 1, 1, 0, 1, 0, 1, 0, 1, 0, 1
3117, '1', 49, -9.07, 13.42, -9.07, 1.0027611, 0, 0, 0, 1.0, 0, 0, 1, 1, 1, 49, 0, 1, 1, 0, 1, 0, 1, 0, 1, 0, 1
3118, '1', 25.1, -17.28, 25.56, -17.28, 1, 0, 0, 0, 1.0, 0, 0, 1, 1, 1, 25.1, 0, 1, 1, 0, 1, 0, 1, 0, 1, 0, 1
3120, '1', 0, 0, 0, 0, 1.0162579, 0, 0, 0, 1.0, 0, 0, 1, 1, 1, 0, 0, 1, 1, 0, 1, 0, 1, 0, 1, 0, 1
3122, '1', 127.3, -28.37, 41.96, -28.37, 1, 0, 0, 0, 1.0, 0, 0, 1, 1, 1, 127.3, 0, 1, 1, 0, 1, 0, 1, 0, 1, 0, 1
3127, '1', 79.5, -19.44, 28.76, -19.44, 1.0214367, 0, 0, 0, 1.0, 0, 0, 1, 1, 1, 79.5, 0, 1, 1, 0, 1, 0, 1, 0, 1, 0, 1
3129, '1', 76.9, -18.22, 26.94, -18.22, 1.0252218, 0, 0, 0, 1.0, 0, 0, 1, 1, 1, 76.9, 0, 1, 1, 0, 1, 0, 1, 0, 1, 0, 1
3131, '1', 41.6, -16.42, 24.28, -16.42, 1.02, 0, 0, 0, 1.0, 0, 0, 1, 1, 1, 41.6, 0, 1, 1, 0, 1, 0, 1, 0, 1, 0, 1
3133, '1', 15.39, 8.883, 26.11, -5.69, 1.0290101, 0, 0, 0, 1.0, 0, 0, 1, 0, 1, 51.3, 15.39, 1, 1, 0, 1, 0, 1, 0, 1, 0, 1
3133, '2', 15.39, 8.883, 26.11, -5.69, 1.0290101, 0, 0, 0, 1.0, 0, 0, 1, 0, 1, 51.3, 15.39, 1, 1, 0, 1, 0, 1, 0, 1, 0, 1
3133, '3', 15.39, 8.883, 26.11, -5.69, 1.0290101, 0, 0, 0, 1.0, 0, 0, 1, 0, 1, 51.3, 15.39, 1, 1, 0, 1, 0, 1, 0, 1, 0, 1
3137, '1', 31.4, -14.57, 21.56, -14.57, 1.03, 0, 0, 0, 1.0, 0, 0, 1, 1, 1, 31.4, 0, 1, 1, 0, 1, 0, 1, 0, 1, 0, 1
3141, '1', 69.4, -13.18, 19.49, -13.18, 1.0223198, 0, 0, 0, 1.0, 0, 0, 1, 1, 1, 69.4, 0, 1, 1, 0, 1, 0, 1, 0, 1, 0, 1
4010, '1', 3.2, -29.03, 42.94, -29.03, 1.03, 0, 0, 0, 1.0, 0, 0, 1, 1, 1, 3.2, 0, 1, 1, 0, 1, 0, 1, 0, 1, 0, 1
4026, '1', 124.59735, -50.02, 191.06, -50.02, 1.03, 0, 0, 0, 1.0, 0, 0, 1, 1, 1, 410, 123, 1, 1, 0, 1, 0, 1, 0, 1, 0, 1
4030, '1', 189.14485, -75.93, 290.04, -75.93, 1.0178654, 0, 0, 0, 1.0, 0, 0, 1, 1, 1, 622.4, 186.72, 1, 1, 0, 1, 0, 1, 0, 1, 0, 1
4045, '1', 0, -1.54, 35.862, -1.54, 1.02, 0, 0, 0, 1.0, 0, 0, 1, 1, 1, 0, 0, 1, 1, 0, 1, 0, 1, 0, 1, 0, 1
4046, '1', 0, -0.47, 10.936, -0.47, 1.02, 0, 0, 0, 1.0, 0, 0, 1, 1, 1, 0, 0, 1, 1, 0, 1, 0, 1, 0, 1, 0, 1
4047, '1', 0, -3.23, 75.102, -3.23, 1.02, 0, 0, 0, 1.0, 0, 0, 1, 1, 1, 0, 0, 1, 1, 0, 1, 0, 1, 0, 1, 0, 1
4050, '1', 13.1, -28.8, 42.6, -28.8, 1, 0, 0, 0, 1.0, 0, 0, 1, 1, 1, 13.1, 0, 1, 1, 0, 1, 0, 1, 0, 1, 0, 1
4052, '1', 13.432202, -4.91, 22.5, -4.91, 1.04, 0, 0, 0, 1.0, 0, 0, 1, 1, 1, 44.2, 13.26, 1, 1, 0, 1, 0, 1, 0, 1, 0, 1
4058, '1', 43.761019, -15.98, 73.3, -15.98, 1.03, 0, 0, 0, 1.0, 0, 0, 1, 1, 1, 144, 43.2, 1, 1, 0, 1, 0, 1, 0, 1, 0, 1
4059, '1', 43.761019, -15.98, 73.3, -15.98, 1.03, 0, 0, 0, 1.0, 0, 0, 1, 1, 1, 144, 43.2, 1, 1, 0, 1, 0, 1, 0, 1, 0, 1
4060, '1', 43.761019, -15.98, 73.3, -15.98, 1.03, 0, 0, 0, 1.0, 0, 0, 1, 1, 1, 144, 43.2, 1, 1, 0, 1, 0, 1, 0, 1, 0, 1
4061, '1', 52.371392, -19.13, 87.72, -19.13, 1.03, 0, 0, 0, 1.0, 0, 0, 1, 1, 1, 172.33, 51.7, 1, 1, 0, 1, 0, 1, 0, 1, 0, 1
4062, '1', 52.371392, -19.13, 87.72, -19.13, 1.03, 0, 0, 0, 1.0, 0, 0, 1, 1, 1, 172.33, 51.7, 1, 1, 0, 1, 0, 1, 0, 1, 0, 1
4063, '1', 52.371392, -19.13, 87.72, -19.13, 1.03, 0, 0, 0, 1.0, 0, 0, 1, 1, 1, 172.33, 51.7, 1, 1, 0, 1, 0, 1, 0, 1, 0, 1
4065, '1', 14.28311, -5.22, 23.92, -5.22, 1.02, 0, 0, 0, 1.0, 0, 0, 1, 1, 1, 47, 14.1, 1, 1, 0, 1, 0, 1, 0, 1, 0, 1
4075, '1', 53.881, 23.619, 89.75, -19.57, 1.0167179, 0, 0, 0, 1.0, 0, 0, 1, 0, 1, 176.33, 52.9, 1, 1, 0, 1, 0, 1, 0, 1, 0, 1
4076, '1', 53.586976, -19.57, 89.75, -19.57, 1.03, 0, 0, 0, 1.0, 0, 0, 1, 1, 1, 176.33, 52.9, 1, 1, 0, 1, 0, 1, 0, 1, 0, 1
4077, '1', 53.586976, -19.57, 89.75, -19.57, 1.03, 0, 0, 0, 1.0, 0, 0, 1, 1, 1, 176.33, 52.9, 1, 1, 0, 1, 0, 1, 0, 1, 0, 1
4082, '1', 73.968278, -27.02, 123.89, -27.02, 1.04, 0, 0, 0, 1.0, 0, 0, 1, 1, 1, 243.4, 73.02, 1, 1, 0, 1, 0, 1, 0, 1, 0, 1
4083, '1', 73.968278, -27.02, 123.89, -27.02, 1.04, 0, 0, 0, 1.0, 0, 0, 1, 1, 1, 243.4, 73.02, 1, 1, 0, 1, 0, 1, 0, 1, 0, 1
4084, '1', 73.968278, -27.02, 123.89, -27.02, 1.04, 0, 0, 0, 1.0, 0, 0, 1, 1, 1, 243.4, 73.02, 1, 1, 0, 1, 0, 1, 0, 1, 0, 1
4085, '1', 106.97138, -39.07, 179.17, -39.07, 1.04, 0, 0, 0, 1.0, 0, 0, 1, 1, 1, 352, 105.6, 1, 1, 0, 1, 0, 1, 0, 1, 0, 1
4090, '1', 1.387, 0.466, 0.65, -0.17, 1.0102284, 0, 0, 0, 1.0, 0, 0, 1, 0, 1, 1.4, 0.42, 1, 1, 0, 1, 0, 1, 0, 1, 0, 1
4091, '1', 7.1415552, -2.87, 10.95, -2.87, 1.01, 0, 0, 0, 1.0, 0, 0, 1, 1, 1, 23.5, 7.05, 1, 1, 0, 1, 0, 1, 0, 1, 0, 1
4092, '1', 7.528, 2.149, 3.54, -0.93, 1.0102284, 0, 0, 0, 1.0, 0, 0, 1, 0, 1, 7.6, 2.28, 1, 1, 0, 1, 0, 1, 0, 1, 0, 1
4093, '1', 8.509087, -3.42, 13.05, -3.42, 1.01, 0, 0, 0, 1.0, 0, 0, 1, 1, 1, 28, 8.4, 1, 1, 0, 1, 0, 1, 0, 1, 0, 1
4094, '1', 8.509087, -3.42, 13.05, -3.42, 1.01, 0, 0, 0, 1.0, 0, 0, 1, 1, 1, 28, 8.4, 1, 1, 0, 1, 0, 1, 0, 1, 0, 1
4095, '1', 8.509087, -3.42, 13.05, -3.42, 1.01, 0, 0, 0, 1.0, 0, 0, 1, 1, 1, 28, 8.4, 1, 1, 0, 1, 0, 1, 0, 1, 0, 1
4096, '1', 26.298, 0.043, 13.05, -3.42, 1.0102284, 0, 0, 0, 1.0, 0, 0, 1, 0, 1, 28, 8.4, 1, 1, 0, 1, 0, 1, 0, 1, 0, 1
4097, '1', 8.509087, -3.42, 13.05, -3.42, 1.01, 0, 0, 0, 1.0, 0, 0, 1, 1, 1, 28, 8.4, 1, 1, 0, 1, 0, 1, 0, 1, 0, 1
4098, '1', 26.298, -0.247, 13.05, -3.42, 1.0102284, 0, 0, 0, 1.0, 0, 0, 1, 0, 1, 28, 8.4, 1, 1, 0, 1, 0, 1, 0, 1, 0, 1
4105, '1', 12.3, -25.92, 38.34, -25.92, 1.01, 0, 0, 0, 1.0, 0, 0, 1, 1, 1, 12.3, 0, 1, 1, 0, 1, 0, 1, 0, 1, 0, 1
4115, '1', 40.053488, -14.63, 67.09, -14.63, 1.04, 0, 0, 0, 1.0, 0, 0, 1, 1, 1, 131.8, 39.54, 1, 1, 0, 1, 0, 1, 0, 1, 0, 1
4116, '1', 40.053488, -14.63, 67.09, -14.63, 1.04, 0, 0, 0, 1.0, 0, 0, 1, 1, 1, 131.8, 39.54, 1, 1, 0, 1, 0, 1, 0, 1, 0, 1
4133, '1', 10.08, -3.73, 17.1, -3.73, 1.0216537, 0, 0, 0, 1.0, 0, 0, 1, 0, 1, 33.6, 10.08, 1, 1, 0, 1, 0, 1, 0, 1, 0, 1
4134, '1', 10.210905, -3.73, 17.1, -3.73, 1.0163344, 0, 0, 0, 1.0, 0, 0, 1, 1, 1, 33.6, 10.08, 1, 1, 0, 1, 0, 1, 0, 1, 0, 1
4135, '1', 10.210905, -3.73, 17.1, -3.73, 1.0167277, 0, 0, 0, 1.0, 0, 0, 1, 1, 1, 33.6, 10.08, 1, 1, 0, 1, 0, 1, 0, 1, 0, 1
4136, '1', 10.210905, -3.73, 17.1, -3.73, 1.015036, 0, 0, 0, 1.0, 0, 0, 1, 1, 1, 33.6, 10.08, 1, 1, 0, 1, 0, 1, 0, 1, 0, 1
4137, '1', 20.16, -7.46, 34.2, -7.46, 1.0216537, 0, 0, 0, 1.0, 0, 0, 1, 0, 1, 67.2, 20.16, 1, 1, 0, 1, 0, 1, 0, 1, 0, 1
4138, '1', 0, -7.33, 33.59, -7.33, 1.0216537, 0, 0, 0, 1.0, 0, 0, 1, 0, 1, 66, 19.8, 1, 1, 0, 1, 0, 1, 0, 1, 0, 1
4142, '1', 6.1, -27.07, 40.04, -27.07, 1.04, 0, 0, 0, 1.0, 0, 0, 1, 1, 1, 6.1, 0, 1, 1, 0, 1, 0, 1, 0, 1, 0, 1
4153, '1', 20.3, -40.78, 60.32, -40.78, 1.04, 0, 0, 0, 1.0, 0, 0, 1, 1, 1, 20.3, 0, 1, 1, 0, 1, 0, 1, 0, 1, 0, 1
4160, '1', 60.100505, -21.95, 100.66, -21.95, 1.03, 0, 0, 0, 1.0, 0, 0, 1, 1, 1, 197.77, 59.33, 1, 1, 0, 1, 0, 1, 0, 1, 0, 1
4161, '1', 60.100505, -21.95, 100.66, -21.95, 1.03, 0, 0, 0, 1.0, 0, 0, 1, 1, 1, 197.77, 59.33, 1, 1, 0, 1, 0, 1, 0, 1, 0, 1
4162, '1', 60.100505, -21.95, 100.66, -21.95, 1.03, 0, 0, 0, 1.0, 0, 0, 1, 1, 1, 197.77, 59.33, 1, 1, 0, 1, 0, 1, 0, 1, 0, 1
4163, '1', 8.453, 4.58, 4.58, -1, 1.0232444, 0, 0, 0, 1.0, 0, 0, 1, 0, 1, 9, 2.7, 1, 1, 0, 1, 0, 1, 0, 1, 0, 1
4166, '1', 14.4, -28.94, 42.81, -28.94, 1.0111814, 0, 0, 0, 1.0, 0, 0, 1, 1, 1, 14.4, 0, 1, 1, 0, 1, 0, 1, 0, 1, 0, 1
4177, '1', 79.9, -21.6, 31.95, -21.6, 1.04, 0, 0, 0, 1.0, 0, 0, 1, 1, 1, 79.9, 0, 1, 1, 0, 1, 0, 1, 0, 1, 0, 1
4181, '1', 21, -28.81, 42.62, -28.81, 1.0326593, 0, 0, 0, 1.0, 0, 0, 1, 1, 1, 21, 0, 1, 1, 0, 1, 0, 1, 0, 1, 0, 1
4183, '1', 168.3, -29.23, 43.24, -29.23, 1.0262734, 0, 0, 0, 1.0, 0, 0, 1, 1, 1, 168.3, 0, 1, 1, 0, 1, 0, 1, 0, 1, 0, 1
4192, '1', 22.792197, -8.33, 38.17, -8.33, 1.02, 0, 0, 0, 1.0, 0, 0, 1, 1, 1, 75, 22.5, 1, 1, 0, 1, 0, 1, 0, 1, 0, 1
4192, '10', 55.845962, -20.4, 93.54, -20.4, 1.02, 0, 0, 0, 1.0, 0, 0, 1, 1, 1, 183.77, 55.13, 1, 1, 0, 1, 0, 1, 0, 1, 0, 1
4192, '2', 23.773, 9.116, 12.22, -2.66, 1.02, 0, 0, 0, 1.0, 0, 0, 1, 0, 1, 24, 7.2, 1, 1, 0, 1, 0, 1, 0, 1, 0, 1
4192, '3', 18.537654, -6.77, 31.05, -6.77, 1.02, 0, 0, 0, 1.0, 0, 0, 1, 1, 1, 61, 18.3, 1, 1, 0, 1, 0, 1, 0, 1, 0, 1
4192, '4', 3.160518, -1.15, 5.29, -1.15, 1.02, 0, 0, 0, 1.0, 0, 0, 1, 1, 1, 10.4, 3.12, 1, 1, 0, 1, 0, 1, 0, 1, 0, 1
4192, '5', 81.140223, -29.64, 135.9, -29.64, 1.02, 0, 0, 0, 1.0, 0, 0, 1, 1, 1, 267, 80.1, 1, 1, 0, 1, 0, 1, 0, 1, 0, 1
4192, '6', 81.140223, -29.64, 135.9, -29.64, 1.02, 0, 0, 0, 1.0, 0, 0, 1, 1, 1, 267, 80.1, 1, 1, 0, 1, 0, 1, 0, 1, 0, 1
4192, '7', 81.140223, -29.64, 135.9, -29.64, 1.02, 0, 0, 0, 1.0, 0, 0, 1, 1, 1, 267, 80.1, 1, 1, 0, 1, 0, 1, 0, 1, 0, 1
4192, '8', 55.845962, -20.4, 93.54, -20.4, 1.02, 0, 0, 0, 1.0, 0, 0, 1, 1, 1, 183.77, 55.13, 1, 1, 0, 1, 0, 1, 0, 1, 0, 1
4192, '9', 55.845962, -20.4, 93.54, -20.4, 1.02, 0, 0, 0, 1.0, 0, 0, 1, 1, 1, 183.77, 55.13, 1, 1, 0, 1, 0, 1, 0, 1, 0, 1
4194, '1', 13.1, -29.03, 42.94, -29.03, 1.0114821, 0, 0, 0, 1.0, 0, 0, 1, 1, 1, 13.1, 0, 1, 1, 0, 1, 0, 1, 0, 1, 0, 1
4195, '1', 23.4, -13.25, 19.6, -13.25, 1.0342779, 0, 0, 0, 1.0, 0, 0, 1, 1, 1, 23.4, 0, 1, 1, 0, 1, 0, 1, 0, 1, 0, 1
5020, '1', 7, -17.28, 25.56, -17.28, 1.0431731, 0, 0, 0, 1.0, 0, 0, 1, 1, 1, 7, 0, 1, 1, 0, 1, 0, 1, 0, 1, 0, 1
5023, '1', 4.538, 2.44, 2.44, -0.53, 1.0296485, 0, 0, 0, 1.0, 0, 0, 1, 0, 1, 4.8, 1.44, 1, 1, 0, 1, 0, 1, 0, 1, 0, 1
5035, '1', 4.16, -0.47, 2.14, -0.47, 1.0238796, 0, 0, 0, 1.0, 0, 0, 1, 0, 1, 4.2, 1.26, 1, 1, 0, 1, 0, 1, 0, 1, 0, 1
5036, '1', 6.05, 0.178, 3.26, -0.71, 1.0238796, 0, 0, 0, 1.0, 0, 0, 1, 0, 1, 6.4, 1.92, 1, 1, 0, 1, 0, 1, 0, 1, 0, 1
5037, '1', 93.741789, -34.24, 157.01, -34.24, 1.02, 0, 0, 0, 1.0, 0, 0, 1, 1, 1, 308.47, 92.54, 1, 1, 0, 1, 0, 1, 0, 1, 0, 1
5038, '1', 93.741789, -34.24, 157.01, -34.24, 1.02, 0, 0, 0, 1.0, 0, 0, 1, 1, 1, 308.47, 92.54, 1, 1, 0, 1, 0, 1, 0, 1, 0, 1
5039, '1', 93.741789, -34.24, 157.01, -34.24, 1.0220905, 0, 0, 0, 1.0, 0, 0, 1, 1, 1, 308.47, 92.54, 1, 1, 0, 1, 0, 1, 0, 1, 0, 1
5040, '1', 93.741789, -34.24, 157.01, -34.24, 1.02, 0, 0, 0, 1.0, 0, 0, 1, 1, 1, 308.47, 92.54, 1, 1, 0, 1, 0, 1, 0, 1, 0, 1
5041, '1', 93.741789, -34.24, 157.01, -34.24, 1.0201841, 0, 0, 0, 1.0, 0, 0, 1, 1, 1, 308.47, 92.54, 1, 1, 0, 1, 0, 1, 0, 1, 0, 1
5042, '1', 93.741789, -34.24, 157.01, -34.24, 1.02, 0, 0, 0, 1.0, 0, 0, 1, 1, 1, 308.47, 92.54, 1, 1, 0, 1, 0, 1, 0, 1, 0, 1
5051, '1', 25.739988, -9.4, 43.11, -9.4, 1.0297602, 0, 0, 0, 1.0, 0, 0, 1, 1, 1, 84.7, 25.41, 1, 1, 0, 1, 0, 1, 0, 1, 0, 1
5057, '1', 269.913, -35.23, 161.53, -35.23, 1.0428057, 0, 0, 0, 1.0, 0, 0, 1, 0, 1, 317.35, 95.2, 1, 1, 0, 1, 0, 1, 0, 1, 0, 1
5058, '1', 96.436385, -35.23, 161.53, -35.23, 1.0386132, 0, 0, 0, 1.0, 0, 0, 1, 1, 1, 317.35, 95.2, 1, 1, 0, 1, 0, 1, 0, 1, 0, 1
5065, '1', 10.6, -1.18, 5.4, -1.18, 1.0285997, 0, 0, 0, 1.0, 0, 0, 1, 1, 1, 10.6, 3.18, 1, 1, 0, 1, 0, 1, 0, 1, 0, 1
5066, '1', 1.783, 0.92, 0.92, -0.2, 1.0276625, 0, 0, 0, 1.0, 0, 0, 1, 0, 1, 1.8, 0.54, 1, 1, 0, 1, 0, 1, 0, 1, 0, 1
5067, '1', 133.18748, -48.65, 223.08, -48.65, 1.03, 0, 0, 0, 1.0, 0, 0, 1, 1, 1, 438.27, 131.48, 1, 1, 0, 1, 0, 1, 0, 1, 0, 1
5068, '1', 133.18748, -48.65, 223.08, -48.65, 1.03, 0, 0, 0, 1.0, 0, 0, 1, 1, 1, 438.27, 131.48, 1, 1, 0, 1, 0, 1, 0, 1, 0, 1
5069, '1', 133.18748, -48.65, 223.08, -48.65, 1.03, 0, 0, 0, 1.0, 0, 0, 1, 1, 1, 438.27, 131.48, 1, 1, 0, 1, 0, 1, 0, 1, 0, 1
5089, '1', 123.504, -2.05, 47.569, -2.05, 1.0345523, 0, 0, 0, 1.0, 0, 0, 1, 0, 1, 123.9, 0, 1, 1, 0, 1, 0, 1, 0, 1, 0, 1
...
0 / END OF GENERATOR DATA, BEGIN BRANCH DATA
1001, 1064, '1', 0.00524, 0.0358, 0.00609, 221, 221, 221, 0, 0, 0, 0, 1, 1, 0, 1, 1, 0, 1, 0, 1, 0, 1
1001, 1064, '2', 0.00524, 0.0358, 0.00609, 221, 221, 221, 0, 0, 0, 0, 1, 1, 0, 1, 1, 0, 1, 0, 1, 0, 1
1001, 1071, '1', 0.00435, 0.02808, 0.00536, 221, 221, 221, 0, 0, 0, 0, 1, 1, 0, 1, 1, 0, 1, 0, 1, 0, 1
1001, 1071, '2', 0.00435, 0.02808, 0.00536, 221, 221, 221, 0, 0, 0, 0, 1, 1, 0, 1, 1, 0, 1, 0, 1, 0, 1
1002, 1007, '1', 0.07776, 0.46693, 0.06336, 98, 98, 98, 0, 0, 0, 0, 1, 1, 0, 1, 1, 0, 1, 0, 1, 0, 1
1010, 1002, '1', 0.05552, 0.1357, 0.01777, 98, 98, 98, 0, 0, 0, 0, 1, 1, 0, 1, 1, 0, 1, 0, 1, 0, 1
1022, 1003, '1', 0.00485, 0.02012, 0.00341, 221, 221, 221, 0, 0, 0, 0, 1, 1, 0, 1, 1, 0, 1, 0, 1, 0, 1
1055, 1003, '1', 0.01574, 0.03782, 0.00513, 98, 98, 98, 0, 0, 0, 0, 1, 1, 0, 1, 1, 0, 1, 0, 1, 0, 1
1004, 3133, '1', 0.0042, 0.03, 0.055, 523, 523, 523, 0, 0, 0, 0, 1, 1, 0, 1, 1, 0, 1, 0, 1, 0, 1
1025, 1005, '1', 0.01842, 0.0821, 0.01204, 149, 149, 149, 0, 0, 0, 0, 1, 1, 0, 1, 1, 0, 1, 0, 1, 0, 1
1005, 1061, '1', 0.00599, 0.02484, 0.00422, 221, 221, 221, 0, 0, 0, 0, 0, 1, 0, 1, 1, 0, 1, 0, 1, 0, 1
1067, 1005, '1', 0.01711, 0.04181, 0.00548, 98, 98, 98, 0, 0, 0, 0, 1, 1, 0, 1, 1, 0, 1, 0, 1, 0, 1
1007, 1015, '1', 0.06224, 0.37375, 0.05072, 98, 98, 98, 0, 0, 0, 0, 1, 1, 0, 1, 1, 0, 1, 0, 1, 0, 1
1031, 1007, '1', 0.04803, 0.27434, 0.04123, 98, 98, 98, 0, 0, 0, 0, 1, 1, 0, 1, 1, 0, 1, 0, 1, 0, 1
1008, 1032, '1', 0.04501, 0.11002, 0.01441, 98, 98, 98, 0, 0, 0, 0, 1, 1, 0, 1, 1, 0, 1, 0, 1, 0, 1
1008, 1069, '1', 0.0083, 0.03628, 0.00553, 149, 149, 149, 0, 0, 0, 0, 1, 1, 0, 1, 1, 0, 1, 0, 1, 0, 1
1010, 1015, '1', 0.04703, 0.28243, 0.03833, 98, 98, 98, 0, 0, 0, 0, 1, 1, 0, 1, 1, 0, 1, 0, 1, 0, 1
1010, 1030, '1', 0.0616, 0.3699, 0.0502, 98, 98, 98, 0, 0, 0, 0, 1, 1, 0, 1, 1, 0, 1, 0, 1, 0, 1
1012, 1087, '1', 0.04934, 0.20469, 0.03473, 149, 149, 149, 0, 0, 0, 0, 1, 1, 0, 1, 1, 0, 1, 0, 1, 0, 1
3051, 1012, '1', 0.0571, 0.24977, 0.03804, 149, 149, 149, 0, 0, 0, 0, 1, 1, 0, 1, 1, 0, 1, 0, 1, 0, 1
1013, 1031, '1', 0.04509, 0.27078, 0.03675, 98, 98, 98, 0, 0, 0, 0, 1, 1, 0, 1, 1, 0, 1, 0, 1, 0, 1
1047, 1013, '1', 0.00947, 0.06117, 0.01167, 221, 221, 221, 0, 0, 0, 0, 1, 1, 0, 1, 1, 0, 1, 0, 1, 0, 1
1086, 1013, '1', 0.079, 0.19311, 0.02529, 98, 98, 98, 0, 0, 0, 0, 1, 1, 0, 1, 1, 0, 1, 0, 1, 0, 1
1014, 1047, '1', 0.03566, 0.14794, 0.0251, 149, 149, 149, 0, 0, 0, 0, 1, 1, 0, 1, 1, 0, 1, 0, 1, 0, 1
1014, 1083, '1', 0.04105, 0.18293, 0.02682, 149, 149, 149, 0, 0, 0, 0, 1, 1, 0, 1, 1, 0, 1, 0, 1, 0, 1
1016, 1034, '1', 0.01828, 0.10976, 0.01489, 98, 98, 98, 0, 0, 0, 0, 1, 1, 0, 1, 1, 0, 1, 0, 1, 0, 1
1068, 1016, '1', 0.02773, 0.15837, 0.0238, 98, 98, 98, 0, 0, 0, 0, 1, 1, 0, 1, 1, 0, 1, 0, 1, 0, 1
1018, 1017, '1', 0.03227, 0.07887, 0.01033, 98, 98, 98, 0, 0, 0, 0, 1, 1, 0, 1, 1, 0, 1, 0, 1, 0, 1
1017, 1029, '1', 0.03244, 0.14188, 0.02161, 149, 149, 149, 0, 0, 0, 0, 1, 1, 0, 1, 1, 0, 1, 0, 1, 0, 1
1037, 1017, '1', 0.00752, 0.03352, 0.00491, 221, 221, 221, 0, 0, 0, 0, 1, 1, 0, 1, 1, 0, 1, 0, 1, 0, 1
1047, 1017, '1', 0.036, 0.156, 0.024, 150, 150, 150, 0, 0, 0, 0, 1, 1, 0, 1, 1, 0, 1, 0, 1, 0, 1
1024, 1018, '1', 0.01094, 0.06572, 0.00892, 98, 98, 98, 0, 0, 0, 0, 1, 1, 0, 1, 1, 0, 1, 0, 1, 0, 1
1019, 1040, '1', 0.04978, 0.20651, 0.03504, 149, 149, 149, 0, 0, 0, 0, 1, 1, 0, 1, 1, 0, 1, 0, 1, 0, 1
1019, 1045, '1', 0.01522, 0.0372, 0.00487, 221, 221, 221, 0, 0, 0, 0, 1, 1, 0, 1, 1, 0, 1, 0, 1, 0, 1
1019, 1071, '1', 0.0044, 0.028, 0.0054, 225, 225, 225, 0, 0, 0, 0, 1, 1, 0, 1, 1, 0, 1, 0, 1, 0, 1
1071, 1019, '2', 0.0044, 0.028, 0.0054, 225, 225, 225, 0, 0, 0, 0, 1, 1, 0, 1, 1, 0, 1, 0, 1, 0, 1
1019, 1084, '1', 0.03, 0.16, 0.025, 220, 220, 220, 0, 0, 0, 0, 1, 1, 0, 1, 1, 0, 1, 0, 1, 0, 1
1025, 1020, '1', 0.00828, 0.03434, 0.00583, 149, 149, 149, 0, 0, 0, 0, 1, 1, 0, 1, 1, 0, 1, 0, 1, 0, 1
1084, 1020, '1', 0.01056, 0.06337, 0.0086, 221, 221, 221, 0, 0, 0, 0, 1, 1, 0, 1, 1, 0, 1, 0, 1, 0, 1
1020, 3059, '1', 0.0189, 0.06, 0.006, 300, 300, 300, 0, 0, 0, 0, 1, 1, 0, 1, 1, 0, 1, 0, 1, 0, 1
1020, 3130, '1', 0.00996, 0.06938, 0.01134, 221, 221, 221, 0, 0, 0, 0, 1, 1, 0, 1, 1, 0, 1, 0, 1, 0, 1
1022, 1028, '1', 0.01433, 0.09253, 0.01765, 221, 221, 221, 0, 0, 0, 0, 1, 1, 0, 1, 1, 0, 1, 0, 1, 0, 1
1022, 1028, '2', 0.01433, 0.09253, 0.01765, 221, 221, 221, 0, 0, 0, 0, 1, 1, 0, 1, 1, 0, 1, 0, 1, 0, 1
1024, 1090, '1', 0.01414, 0.06303, 0.00924, 149, 149, 149, 0, 0, 0, 0, 1, 1, 0, 1, 1, 0, 1, 0, 1, 0, 1
1027, 1045, '1', 0.02505, 0.10957, 0.01669, 221, 221, 221, 0, 0, 0, 0, 1, 1, 0, 1, 1, 0, 1, 0, 1, 0, 1
1056, 1027, '1', 0.03121, 0.0763, 0.00999, 250, 250, 250, 0, 0, 0, 0, 1, 1, 0, 1, 1, 0, 1, 0, 1, 0, 1
1028, 3109, '1', 0.00428, 0.01875, 0.00286, 250, 250, 250, 0, 0, 0, 0, 1, 1, 0, 1, 1, 0, 1, 0, 1, 0, 1
1029, 1056, '1', 0.02054, 0.11733, 0.01763, 221, 221, 221, 0, 0, 0, 0, 1, 1, 0, 1, 1, 0, 1, 0, 1, 0, 1
1030, 1038, '1', 0.07404, 0.42285, 0.06354, 98, 98, 98, 0, 0, 0, 0, 1, 1, 0, 1, 1, 0, 1, 0, 1, 0, 1
1083, 1030, '1', 0.06537, 0.37334, 0.0561, 98, 98, 98, 0, 0, 0, 0, 1, 1, 0, 1, 1, 0, 1, 0, 1, 0, 1
1032, 1036, '1', 0.01956, 0.11746, 0.01594, 98, 98, 98, 0, 0, 0, 0, 1, 1, 0, 1, 1, 0, 1, 0, 1, 0, 1
1038, 1032, '1', 0.045, 0.11, 0.015, 155, 155, 155, 0, 0, 0, 0, 1, 1, 0, 1, 1, 0, 1, 0, 1, 0, 1
1033, 1081, '1', 0.003, 0.031, 0.059, 548, 548, 548, 0, 0, 0, 0, 1, 1, 0, 1, 1, 0, 1, 0, 1, 0, 1
1033, 3050, '1', 0.0139, 0.136, 0.262, 647, 647, 647, 0, 0, 0, 0, 1, 1, 0, 1, 1, 0, 1, 0, 1, 0, 1
1067, 1034, '1', 0.00795, 0.04771, 0.00647, 98, 98, 98, 0, 0, 0, 0, 1, 1, 0, 1, 1, 0, 1, 0, 1, 0, 1
1088, 1036, '1', 0.02065, 0.11793, 0.01772, 98, 98, 98, 0, 0, 0, 0, 1, 1, 0, 1, 1, 0, 1, 0, 1, 0, 1
1037, 1071, '1', 0.00669, 0.04319, 0.00824, 300, 300, 300, 0, 0, 0, 0, 1, 1, 0, 1, 1, 0, 1, 0, 1, 0, 1
1082, 1038, '1', 0.01115, 0.04969, 0.00729, 149, 149, 149, 0, 0, 0, 0, 1, 1, 0, 1, 1, 0, 1, 0, 1, 0, 1
1083, 1038, '1', 0.01, 0.05, 0.007, 221, 221, 221, 0, 0, 0, 0, 1, 1, 0, 1, 1, 0, 1, 0, 1, 0, 1
1040, 1090, '1', 0.02991, 0.13329, 0.01955, 149, 149, 149, 0, 0, 0, 0, 1, 1, 0, 1, 1, 0, 1, 0, 1, 0, 1
1065, 1041, '1', 0.00386, 0.02203, 0.00331, 98, 98, 98, 0, 0, 0, 0, 1, 1, 0, 1, 1, 0, 1, 0, 1, 0, 1
1041, 1067, '1', 0.00393, 0.01722, 0.00262, 149, 149, 149, 0, 0, 0, 0, 1, 1, 0, 1, 1, 0, 1, 0, 1, 0, 1
1044, 3019, '1', 0.03857, 0.17192, 0.02521, 149, 149, 149, 0, 0, 0, 0, 1, 1, 0, 1, 1, 0, 1, 0, 1, 0, 1
3130, 1044, '1', 0.02731, 0.19029, 0.03111, 221, 221, 221, 0, 0, 0, 0, 1, 1, 0, 1, 1, 0, 1, 0, 1, 0, 1
1045, 1064, '1', 0.00545, 0.03794, 0.0062, 221, 221, 221, 0, 0, 0, 0, 1, 1, 0, 1, 1, 0, 1, 0, 1, 0, 1
1087, 1046, '1', 0.03262, 0.14269, 0.02173, 149, 149, 149, 0, 0, 0, 0, 1, 1, 0, 1, 1, 0, 1, 0, 1, 0, 1
1046, 3009, '1', 0.05654, 0.23454, 0.0398, 149, 149, 149, 0, 0, 0, 0, 1, 1, 0, 1, 1, 0, 1, 0, 1, 0, 1
1047, 1085, '1', 0.00947, 0.06117, 0.01167, 221, 221, 221, 0, 0, 0, 0, 1, 1, 0, 1, 1, 0, 1, 0, 1, 0, 1
1053, 1081, '1', 0.003, 0.03, 0.06, 548, 548, 548, 0, 0, 0, 0, 1, 1, 0, 1, 1, 0, 1, 0, 1, 0, 1
1054, 1056, '1', 0.02202, 0.09633, 0.01467, 149, 149, 149, 0, 0, 0, 0, 1, 1, 0, 1, 1, 0, 1, 0, 1, 0, 1
1089, 1054, '1', 0.08737, 0.21357, 0.02796, 98, 98, 98, 0, 0, 0, 0, 1, 1, 0, 1, 1, 0, 1, 0, 1, 0, 1
1055, 1089, '1', 0.04982, 0.12179, 0.01595, 98, 98, 98, 0, 0, 0, 0, 1, 1, 0, 1, 1, 0, 1, 0, 1, 0, 1
1056, 1061, '1', 0.02267, 0.12946, 0.01945, 150, 150, 150, 0, 0, 0, 0, 1, 1, 0, 1, 1, 0, 1, 0, 1, 0, 1
1056, 1065, '1', 0.02269, 0.12962, 0.01948, 250, 250, 250, 0, 0, 0, 0, 1, 1, 0, 1, 1, 0, 1, 0, 1, 0, 1
1069, 1058, '1', 0.0074, 0.05155, 0.00843, 221, 221, 221, 0, 0, 0, 0, 1, 1, 0, 1, 1, 0, 1, 0, 1, 0, 1
1069, 1058, '2', 0.0074, 0.05155, 0.00843, 221, 221, 221, 0, 0, 0, 0, 1, 1, 0, 1, 1, 0, 1, 0, 1, 0, 1
1058, 1087, '1', 0.01573, 0.10956, 0.01791, 221, 221, 221, 0, 0, 0, 0, 1, 1, 0, 1, 1, 0, 1, 0, 1, 0, 1
1058, 1087, '2', 0.01573, 0.10956, 0.01791, 221, 221, 221, 0, 0, 0, 0, 1, 1, 0, 1, 1, 0, 1, 0, 1, 0, 1
1061, 3042, '1', 0.054, 0.18, 0.028, 221, 221, 221, 0, 0, 0, 0, 1, 1, 0, 1, 1, 0, 1, 0, 1, 0, 1
1088, 1068, '1', 0.02962, 0.16921, 0.02543, 98, 98, 98, 0, 0, 0, 0, 1, 1, 0, 1, 1, 0, 1, 0, 1, 0, 1
1082, 1069, '1', 0.02137, 0.0952, 0.01396, 149, 149, 149, 0, 0, 0, 0, 1, 1, 0, 1, 1, 0, 1, 0, 1, 0, 1
3048, 1079, '1', 0.0013, 0.015, 1.02, 2300, 2300, 2300, 0, 0, 0, 0, 1, 1, 0, 1, 1, 0, 1, 0, 1, 0, 1
3048, 1079, '2', 0.0013, 0.015, 1.02, 2300, 2300, 2300, 0, 0, 0, 0, 1, 1, 0, 1, 1, 0, 1, 0, 1, 0, 1
1081, 3058, '1', 0.0091, 0.089, 0.171, 548, 548, 548, 0, 0, 0, 0, 1, 1, 0, 1, 1, 0, 1, 0, 1, 0, 1
1084, 3130, '1', 0.02049, 0.09131, 0.01339, 221, 221, 221, 0, 0, 0, 0, 1, 1, 0, 1, 1, 0, 1, 0, 1, 0, 1
1085, 1086, '1', 0.03392, 0.14838, 0.0226, 149, 149, 149, 0, 0, 0, 0, 1, 1, 0, 1, 1, 0, 1, 0, 1, 0, 1
1090, 1085, '1', 0.02018, 0.13786, 0.02346, 221, 221, 221, 0, 0, 0, 0, 1, 1, 0, 1, 1, 0, 1, 0, 1, 0, 1
2029, 1091, '1', 0.0389, 0.17144, 0.0798, 187, 187, 187, 0, 0, 0, 0, 1, 1, 0, 1, 1, 0, 1, 0, 1, 0, 1
1091, 2048, '1', 0.02193, 0.09667, 0.045, 187, 187, 187, 0, 0, 0, 0, 1, 1, 0, 1, 1, 0, 1, 0, 1, 0, 1
2098, 1091, '1', 0.00554, 0.02443, 0.01137, 187, 187, 187, 0, 0, 0, 0, 1, 1, 0, 1, 1, 0, 1, 0, 1, 0, 1
2022, 2001, '1', 0.00839, 0.03697, 0.01721, 187, 187, 187, 0, 0, 0, 0, 1, 1, 0, 1, 1, 0, 1, 0, 1, 0, 1
2027, 2001, '1', 0.00955, 0.04062, 0.02032, 187, 187, 187, 0, 0, 0, 0, 1, 1, 0, 1, 1, 0, 1, 0, 1, 0, 1
2021, 2002, '1', 0.00097, 0.01175, 0.78032, 2295, 2295, 2295, 0, 0, 0, 0, 1, 1, 0, 1, 1, 0, 1, 0, 1, 0, 1
2002, 2101, '1', 0.00031, 0.0037, 0.24573, 2020, 2020, 2020, 0, 0, 0, 0, 1, 1, 0, 1, 1, 0, 1, 0, 1, 0, 1
2038, 2003, '1', 0.00353, 0.02067, 0.01032, 251, 251, 251, 0, 0, 0, 0, 1, 1, 0, 1, 1, 0, 1, 0, 1, 0, 1
2003, 2047, '1', 0.0013, 0.0099, 0.0052, 310, 310, 310, 0, 0, 0, 0, 1, 1, 0, 1, 1, 0, 1, 0, 1, 0, 1
2007, 2114, '1', 0.00888, 0.05207, 0.026, 251, 251, 251, 0, 0, 0, 0, 1, 1, 0, 1, 1, 0, 1, 0, 1, 0, 1
2007, 2122, '1', 0.00861, 0.03661, 0.01831, 187, 187, 187, 0, 0, 0, 0, 1, 1, 0, 1, 1, 0, 1, 0, 1, 0, 1
2014, 2008, '1', 0.02253, 0.09931, 0.04623, 187, 187, 187, 0, 0, 0, 0, 1, 1, 0, 1, 1, 0, 1, 0, 1, 0, 1
2008, 2052, '1', 0.01877, 0.08271, 0.0385, 187, 187, 187, 0, 0, 0, 0, 1, 1, 0, 1, 1, 0, 1, 0, 1, 0, 1
2009, 2049, '1', 0.01224, 0.07176, 0.03583, 251, 251, 251, 0, 0, 0, 0, 1, 1, 0, 1, 1, 0, 1, 0, 1, 0, 1
2009, 2082, '1', 0.00735, 0.03126, 0.01563, 187, 187, 187, 0, 0, 0, 0, 1, 1, 0, 1, 1, 0, 1, 0, 1, 0, 1
2109, 2009, '1', 0.00725, 0.03084, 0.01542, 250, 250, 250, 0, 0, 0, 0, 1, 1, 0, 1, 1, 0, 1, 0, 1, 0, 1
2061, 2010, '1', 0.02439, 0.10748, 0.05003, 187, 187, 187, 0, 0, 0, 0, 1, 1, 0, 1, 1, 0, 1, 0, 1, 0, 1
2010, 2079, '1', 0.02061, 0.09083, 0.04228, 187, 187, 187, 0, 0, 0, 0, 1, 1, 0, 1, 1, 0, 1, 0, 1, 0, 1
2010, 2091, '1', 0.02461, 0.10467, 0.05235, 187, 187, 187, 0, 0, 0, 0, 1, 1, 0, 1, 1, 0, 1, 0, 1, 0, 1
2127, 2011, '1', 0.00108, 0.01307, 0.86827, 2020, 2020, 2020, 0, 0, 0, 0, 1, 1, 0, 1, 1, 0, 1, 0, 1, 0, 1
2012, 2041, '1', 0.01245, 0.05297, 0.02649, 187, 187, 187, 0, 0, 0, 0, 1, 1, 0, 1, 1, 0, 1, 0, 1, 0, 1
2012, 2052, '1', 0.02008, 0.08851, 0.0412, 187, 187, 187, 0, 0, 0, 0, 1, 1, 0, 1, 1, 0, 1, 0, 1, 0, 1
2093, 2012, '1', 0.01029, 0.04536, 0.02111, 187, 187, 187, 0, 0, 0, 0, 1, 1, 0, 1, 1, 0, 1, 0, 1, 0, 1
...